/*---------------------------------------------------------------------------*\
  =========                 |
  \\      /  F ield         | OpenFOAM: The Open Source CFD Toolbox
   \\    /   O peration     | Website:  https://openfoam.org
    \\  /    A nd           | Version:  9
     \\/     M anipulation  |
\*---------------------------------------------------------------------------*/
Build  : 9-b456138dc4bc
Exec   : rheoEFoam
Date   : May 09 2025
Time   : 06:43:33
Host   : "53fb47eb5f71"
PID    : 206
I/O    : uncollated
Case   : /data/rheoTool/tutorials/rheoEFoam/channelEDF/PTT/DebyeHuckel
nProcs : 1
sigFpe : Enabling floating point exception trapping (FOAM_SIGFPE).
fileModificationChecking : Monitoring run-time modified files using timeStampMaster (fileModificationSkew 10)
allowSystemOperations : Allowing user-supplied system call operations

// * * * * * * * * * * * * * * * * * * * * * * * * * * * * * * * * * * * * * //
Create time

Create mesh for time = 0


SIMPLE: No convergence criteria found


SIMPLE: No convergence criteria found


SIMPLE: Operating solver in transient mode with 1 outer corrector
SIMPLE: Operating solver in PISO mode


Reading field p

Reading field U

Reading/calculating face flux field phi

Using openFoamSolver solver for p
Using openFoamSolver solver for U
Selecting constitutive equation PTT
Selecting thermoFunction: Constant
Selecting thermoFunction: Constant
Selecting EDF model: DebyeHuckel
Field phiE not found. Single electric potential: psi. 



Debye length: 4.99681854126e-06 m.

No MRF models present

No fvModels present
No fvConstraints present
Courant Number mean: 0 max: 0

Starting time loop

Courant Number mean: 0 max: 0
deltaT = 1.1999999952e-07
Time = 1e-07

Inner iteration:  0

DICPCG:  Solving for Ux, Initial residual = 0.999999998238, Final residual = 7.61544664489e-12, No Iterations 2
DICPCG:  Solving for Uy, Initial residual = 0, Final residual = 0, No Iterations 0
DICPCG:  Solving for p, Initial residual = 0.999998800039, Final residual = 6.25865336041e-11, No Iterations 36
time step continuity errors : sum local = 7.09620948592e-21, global = 1.02736563472e-22, cumulative = 1.02736563472e-22
DILUPBiCG:  Solving for tauxx, Initial residual = 0.998795332955, Final residual = 8.83684531654e-16, No Iterations 1
DILUPBiCG:  Solving for tauxy, Initial residual = 0.999859287531, Final residual = 1.8633173215e-16, No Iterations 1
DILUPBiCG:  Solving for tauyy, Initial residual = 0.999415157905, Final residual = 3.61052453163e-16, No Iterations 1
DILUPBiCG:  Solving for tauzz, Initial residual = 0, Final residual = 0, No Iterations 0
DICPCG:  Solving for psi, Initial residual = 1, Final residual = 1.98588490388e-11, No Iterations 3
ExecutionTime = 0.17 s  ClockTime = 0 s

Courant Number mean: 1.70280401421e-10 max: 7.61910836955e-09
deltaT = 1.43999998733e-07
Time = 2.199999995e-07

Inner iteration:  0

DICPCG:  Solving for Ux, Initial residual = 0.927883467737, Final residual = 9.83620414822e-12, No Iterations 2
DICPCG:  Solving for Uy, Initial residual = 0.292403960533, Final residual = 2.33437338731e-12, No Iterations 2
DICPCG:  Solving for p, Initial residual = 0.156881466755, Final residual = 2.57972394404e-11, No Iterations 36
time step continuity errors : sum local = 1.38689725816e-20, global = -1.27451175702e-22, cumulative = -2.47146122304e-23
DILUPBiCG:  Solving for tauxx, Initial residual = 0.307659937538, Final residual = 3.41201152229e-16, No Iterations 1
DILUPBiCG:  Solving for tauxy, Initial residual = 0.958852536672, Final residual = 2.06530398712e-16, No Iterations 1
DILUPBiCG:  Solving for tauyy, Initial residual = 0.264002149197, Final residual = 2.69388483279e-16, No Iterations 1
DILUPBiCG:  Solving for tauzz, Initial residual = 0, Final residual = 0, No Iterations 0
DICPCG:  Solving for psi, Initial residual = 1.18617925016e-11, Final residual = 1.18617925016e-11, No Iterations 0
ExecutionTime = 0.18 s  ClockTime = 0 s

Courant Number mean: 2.29154049313e-10 max: 5.54015287518e-09
deltaT = 1.72799994498e-07
Time = 3.639999983e-07

Inner iteration:  0

DICPCG:  Solving for Ux, Initial residual = 0.157149769807, Final residual = 2.17664424992e-12, No Iterations 2
DICPCG:  Solving for Uy, Initial residual = 0.224607485676, Final residual = 2.26399517485e-12, No Iterations 2
DICPCG:  Solving for p, Initial residual = 0.0558772576937, Final residual = 5.31391807688e-12, No Iterations 36
time step continuity errors : sum local = 1.91994098808e-20, global = 7.0703052117e-23, cumulative = 4.59884398866e-23
DILUPBiCG:  Solving for tauxx, Initial residual = 0.161360140803, Final residual = 1.06440294223e-16, No Iterations 1
DILUPBiCG:  Solving for tauxy, Initial residual = 0.362723405372, Final residual = 2.61023584786e-17, No Iterations 1
DILUPBiCG:  Solving for tauyy, Initial residual = 0.129831176148, Final residual = 1.73958555848e-16, No Iterations 1
DILUPBiCG:  Solving for tauzz, Initial residual = 0, Final residual = 0, No Iterations 0
DICPCG:  Solving for psi, Initial residual = 1.18617925016e-11, Final residual = 1.18617925016e-11, No Iterations 0
ExecutionTime = 0.19 s  ClockTime = 0 s

Courant Number mean: 2.73158505075e-10 max: 3.13657107546e-09
deltaT = 2.07359989098e-07
Time = 5.367999928e-07

Inner iteration:  0

DICPCG:  Solving for Ux, Initial residual = 0.090852025148, Final residual = 1.8532735578e-12, No Iterations 2
DICPCG:  Solving for Uy, Initial residual = 0.442919089395, Final residual = 8.71487094682e-12, No Iterations 2
DICPCG:  Solving for p, Initial residual = 0.0248947711973, Final residual = 2.88812977881e-11, No Iterations 35
time step continuity errors : sum local = 2.78564428108e-20, global = -2.09468596063e-22, cumulative = -1.63480156177e-22
DILUPBiCG:  Solving for tauxx, Initial residual = 0.0981692170973, Final residual = 1.63305979211e-16, No Iterations 1
DILUPBiCG:  Solving for tauxy, Initial residual = 0.233037093916, Final residual = 1.62730230119e-17, No Iterations 1
DILUPBiCG:  Solving for tauyy, Initial residual = 0.0748870731553, Final residual = 1.41789996848e-16, No Iterations 1
DILUPBiCG:  Solving for tauzz, Initial residual = 0, Final residual = 0, No Iterations 0
DICPCG:  Solving for psi, Initial residual = 1.18617925016e-11, Final residual = 1.18617925016e-11, No Iterations 0
ExecutionTime = 0.2 s  ClockTime = 0 s

Courant Number mean: 3.6727220043e-10 max: 4.70620664648e-09
deltaT = 2.4883198279e-07
Time = 7.441599818e-07

Inner iteration:  0

DICPCG:  Solving for Ux, Initial residual = 0.0668705589668, Final residual = 2.0067821381e-12, No Iterations 2
DICPCG:  Solving for Uy, Initial residual = 0.577861015083, Final residual = 1.32315913288e-11, No Iterations 2
DICPCG:  Solving for p, Initial residual = 0.0130633498075, Final residual = 2.3040802799e-11, No Iterations 35
time step continuity errors : sum local = 3.98744683697e-20, global = -8.87564220308e-22, cumulative = -1.05104437649e-21
DILUPBiCG:  Solving for tauxx, Initial residual = 0.0725725466351, Final residual = 1.44917084237e-16, No Iterations 1
DILUPBiCG:  Solving for tauxy, Initial residual = 0.178923598107, Final residual = 1.24735249814e-17, No Iterations 1
DILUPBiCG:  Solving for tauyy, Initial residual = 0.055926047469, Final residual = 6.27768475e-17, No Iterations 1
DILUPBiCG:  Solving for tauzz, Initial residual = 0, Final residual = 0, No Iterations 0
DICPCG:  Solving for psi, Initial residual = 1.18617925016e-11, Final residual = 1.18617925016e-11, No Iterations 0
ExecutionTime = 0.21 s  ClockTime = 0 s

Courant Number mean: 5.76547509556e-10 max: 7.98893399451e-09
deltaT = 2.98598373403e-07
Time = 9.929919646e-07

Inner iteration:  0

DICPCG:  Solving for Ux, Initial residual = 0.0545613973572, Final residual = 2.39310609511e-12, No Iterations 2
DICPCG:  Solving for Uy, Initial residual = 0.507123471822, Final residual = 1.30455261288e-11, No Iterations 2
DICPCG:  Solving for p, Initial residual = 0.00837147103838, Final residual = 9.13829981142e-12, No Iterations 35
time step continuity errors : sum local = 5.7073358277e-20, global = 5.52467942858e-22, cumulative = -4.98576433628e-22
DILUPBiCG:  Solving for tauxx, Initial residual = 0.0611750910155, Final residual = 1.08483858741e-16, No Iterations 1
DILUPBiCG:  Solving for tauxy, Initial residual = 0.149577563254, Final residual = 3.46169660237e-17, No Iterations 1
DILUPBiCG:  Solving for tauyy, Initial residual = 0.052140557442, Final residual = 2.24936891677e-17, No Iterations 1
DILUPBiCG:  Solving for tauzz, Initial residual = 0, Final residual = 0, No Iterations 0
DICPCG:  Solving for psi, Initial residual = 1.18617925016e-11, Final residual = 1.18617925016e-11, No Iterations 0
ExecutionTime = 0.21 s  ClockTime = 0 s

Courant Number mean: 9.20048216706e-10 max: 1.28703304037e-08
deltaT = 3.58318048084e-07
Time = 1.291590338e-06

Inner iteration:  0

DICPCG:  Solving for Ux, Initial residual = 0.04708156998, Final residual = 3.04334281092e-12, No Iterations 2
DICPCG:  Solving for Uy, Initial residual = 0.353588267857, Final residual = 1.81854115763e-11, No Iterations 2
DICPCG:  Solving for p, Initial residual = 0.00578835223463, Final residual = 7.84848459262e-12, No Iterations 35
time step continuity errors : sum local = 8.08685354959e-20, global = 4.21045987894e-22, cumulative = -7.75304457333e-23
DILUPBiCG:  Solving for tauxx, Initial residual = 0.0554615645188, Final residual = 3.75410937799e-17, No Iterations 1
DILUPBiCG:  Solving for tauxy, Initial residual = 0.131196010034, Final residual = 9.30609415226e-18, No Iterations 1
DILUPBiCG:  Solving for tauyy, Initial residual = 0.0517932021009, Final residual = 2.32079102834e-17, No Iterations 1
DILUPBiCG:  Solving for tauzz, Initial residual = 0, Final residual = 0, No Iterations 0
DICPCG:  Solving for psi, Initial residual = 1.18617925016e-11, Final residual = 1.18617925016e-11, No Iterations 0
ExecutionTime = 0.22 s  ClockTime = 0 s

Courant Number mean: 1.43156379175e-09 max: 1.99278768135e-08
deltaT = 4.29981626887e-07
Time = 1.649908386e-06

Inner iteration:  0

DICPCG:  Solving for Ux, Initial residual = 0.0420357153285, Final residual = 4.05631933268e-12, No Iterations 2
DICPCG:  Solving for Uy, Initial residual = 0.24383243954, Final residual = 2.13217793285e-11, No Iterations 2
DICPCG:  Solving for p, Initial residual = 0.00364194278765, Final residual = 7.58915238723e-11, No Iterations 34
time step continuity errors : sum local = 1.35800016761e-19, global = -7.21640064362e-22, cumulative = -7.99170510095e-22
DILUPBiCG:  Solving for tauxx, Initial residual = 0.0549063381496, Final residual = 3.58981775336e-17, No Iterations 1
DILUPBiCG:  Solving for tauxy, Initial residual = 0.118780168553, Final residual = 4.18292235199e-17, No Iterations 1
DILUPBiCG:  Solving for tauyy, Initial residual = 0.0523202077181, Final residual = 7.03664657257e-17, No Iterations 1
DILUPBiCG:  Solving for tauzz, Initial residual = 0, Final residual = 0, No Iterations 0
DICPCG:  Solving for psi, Initial residual = 1.18617925016e-11, Final residual = 1.18617925016e-11, No Iterations 0
ExecutionTime = 0.23 s  ClockTime = 0 s

Courant Number mean: 2.18383045807e-09 max: 3.01255664413e-08
deltaT = 5.15977925641e-07
Time = 2.079890013e-06

Inner iteration:  0

DICPCG:  Solving for Ux, Initial residual = 0.0383684510633, Final residual = 5.57073165351e-12, No Iterations 2
DICPCG:  Solving for Uy, Initial residual = 0.202476209865, Final residual = 2.21974835535e-11, No Iterations 2
DICPCG:  Solving for p, Initial residual = 0.00218250628694, Final residual = 4.20952371289e-11, No Iterations 34
time step continuity errors : sum local = 1.84262983681e-19, global = 3.54312724557e-21, cumulative = 2.74395673547e-21
DILUPBiCG:  Solving for tauxx, Initial residual = 0.0596257333281, Final residual = 1.97155884005e-17, No Iterations 1
DILUPBiCG:  Solving for tauxy, Initial residual = 0.109844438433, Final residual = 1.71043885019e-17, No Iterations 1
DILUPBiCG:  Solving for tauyy, Initial residual = 0.051749045741, Final residual = 4.60674814349e-17, No Iterations 1
DILUPBiCG:  Solving for tauzz, Initial residual = 0, Final residual = 0, No Iterations 0
DICPCG:  Solving for psi, Initial residual = 1.18617925016e-11, Final residual = 1.18617925016e-11, No Iterations 0
ExecutionTime = 0.24 s  ClockTime = 0 s

Courant Number mean: 3.28834799727e-09 max: 4.48174490922e-08
deltaT = 6.19173485211e-07
Time = 2.595867939e-06

Inner iteration:  0

DICPCG:  Solving for Ux, Initial residual = 0.0355385377312, Final residual = 7.83354090685e-12, No Iterations 2
DICPCG:  Solving for Uy, Initial residual = 0.192667480805, Final residual = 3.52518609574e-11, No Iterations 2
DICPCG:  Solving for p, Initial residual = 0.00129106589863, Final residual = 1.69340020656e-11, No Iterations 34
time step continuity errors : sum local = 2.50562963846e-19, global = -4.72185286213e-21, cumulative = -1.97789612666e-21
DILUPBiCG:  Solving for tauxx, Initial residual = 0.0678390711247, Final residual = 4.93489747137e-18, No Iterations 1
DILUPBiCG:  Solving for tauxy, Initial residual = 0.103118817267, Final residual = 4.43401447599e-17, No Iterations 1
DILUPBiCG:  Solving for tauyy, Initial residual = 0.0499620401786, Final residual = 4.45967709049e-17, No Iterations 1
DILUPBiCG:  Solving for tauzz, Initial residual = 0, Final residual = 0, No Iterations 0
DICPCG:  Solving for psi, Initial residual = 1.18617925016e-11, Final residual = 1.18617925016e-11, No Iterations 0
ExecutionTime = 0.25 s  ClockTime = 0 s

Courant Number mean: 4.90322241825e-09 max: 6.58582749155e-08
deltaT = 7.43008145449e-07
Time = 3.215041424e-06

Inner iteration:  0

DICPCG:  Solving for Ux, Initial residual = 0.0332387979414, Final residual = 1.12019592227e-11, No Iterations 2
DICPCG:  Solving for Uy, Initial residual = 0.188438272624, Final residual = 4.70642763895e-11, No Iterations 2
DICPCG:  Solving for p, Initial residual = 0.000782761589692, Final residual = 6.10581056717e-12, No Iterations 34
time step continuity errors : sum local = 3.39965503872e-19, global = -2.80958420994e-21, cumulative = -4.78748033659e-21
DILUPBiCG:  Solving for tauxx, Initial residual = 0.0762929583174, Final residual = 5.10280841583e-18, No Iterations 1
DILUPBiCG:  Solving for tauxy, Initial residual = 0.0979689699826, Final residual = 7.49504206194e-18, No Iterations 1
DILUPBiCG:  Solving for tauyy, Initial residual = 0.0478882768278, Final residual = 7.44611555958e-17, No Iterations 1
DILUPBiCG:  Solving for tauzz, Initial residual = 0, Final residual = 0, No Iterations 0
DICPCG:  Solving for psi, Initial residual = 1.18617925016e-11, Final residual = 1.18617925016e-11, No Iterations 0
ExecutionTime = 0.26 s  ClockTime = 0 s

Courant Number mean: 7.25314860927e-09 max: 9.57954494808e-08
deltaT = 8.91609774539e-07
Time = 3.958049569e-06

Inner iteration:  0

DICPCG:  Solving for Ux, Initial residual = 0.0312812973666, Final residual = 1.62006114212e-11, No Iterations 2
DICPCG:  Solving for Uy, Initial residual = 0.176741811509, Final residual = 6.20880171628e-11, No Iterations 2
DICPCG:  Solving for p, Initial residual = 0.000502239438982, Final residual = 5.8685479803e-11, No Iterations 33
time step continuity errors : sum local = 5.4979316644e-19, global = -1.51936844421e-21, cumulative = -6.30684878081e-21
DILUPBiCG:  Solving for tauxx, Initial residual = 0.0808160597265, Final residual = 1.70540274282e-17, No Iterations 1
DILUPBiCG:  Solving for tauxy, Initial residual = 0.0938258779424, Final residual = 7.60798237236e-18, No Iterations 1
DILUPBiCG:  Solving for tauyy, Initial residual = 0.045834113823, Final residual = 3.0370449382e-17, No Iterations 1
DILUPBiCG:  Solving for tauzz, Initial residual = 0, Final residual = 0, No Iterations 0
DICPCG:  Solving for psi, Initial residual = 1.18617925016e-11, Final residual = 1.18617925016e-11, No Iterations 0
ExecutionTime = 0.27 s  ClockTime = 0 s

Courant Number mean: 1.06572680941e-08 max: 1.38286363385e-07
deltaT = 1.06993169129e-06
Time = 4.849659344e-06

Inner iteration:  0

DICPCG:  Solving for Ux, Initial residual = 0.0295443202807, Final residual = 2.36047109366e-11, No Iterations 2
DICPCG:  Solving for Uy, Initial residual = 0.152719395973, Final residual = 7.59376842977e-11, No Iterations 2
DICPCG:  Solving for p, Initial residual = 0.000348574497048, Final residual = 4.69050402029e-11, No Iterations 33
time step continuity errors : sum local = 7.63582601939e-19, global = -5.29628217491e-21, cumulative = -1.16031309557e-20
DILUPBiCG:  Solving for tauxx, Initial residual = 0.0800044688151, Final residual = 2.83618026946e-17, No Iterations 1
DILUPBiCG:  Solving for tauxy, Initial residual = 0.0904720651736, Final residual = 7.77520081369e-18, No Iterations 1
DILUPBiCG:  Solving for tauyy, Initial residual = 0.0438792007285, Final residual = 5.39572036288e-18, No Iterations 1
DILUPBiCG:  Solving for tauzz, Initial residual = 0, Final residual = 0, No Iterations 0
DICPCG:  Solving for psi, Initial residual = 1.18617925016e-11, Final residual = 1.18617925016e-11, No Iterations 0
ExecutionTime = 0.28 s  ClockTime = 0 s

Courant Number mean: 1.55697885976e-08 max: 1.9817764383e-07
deltaT = 1.28391802955e-06
Time = 5.919591035e-06

Inner iteration:  0

DICPCG:  Solving for Ux, Initial residual = 0.0279471838207, Final residual = 3.43360033988e-11, No Iterations 2
DICPCG:  Solving for Uy, Initial residual = 0.124449010653, Final residual = 8.92831437844e-11, No Iterations 2
DICPCG:  Solving for p, Initial residual = 0.000262155029529, Final residual = 3.55924616218e-11, No Iterations 33
time step continuity errors : sum local = 1.07924980566e-18, global = 2.33785334012e-20, cumulative = 1.17754024455e-20
DILUPBiCG:  Solving for tauxx, Initial residual = 0.0772425051024, Final residual = 1.6388374325e-17, No Iterations 1
DILUPBiCG:  Solving for tauxy, Initial residual = 0.0877032518707, Final residual = 3.41105165481e-17, No Iterations 1
DILUPBiCG:  Solving for tauyy, Initial residual = 0.0427853064983, Final residual = 1.14817991275e-17, No Iterations 1
DILUPBiCG:  Solving for tauzz, Initial residual = 0, Final residual = 0, No Iterations 0
DICPCG:  Solving for psi, Initial residual = 1.18617925016e-11, Final residual = 1.18617925016e-11, No Iterations 0
ExecutionTime = 0.28 s  ClockTime = 0 s

Courant Number mean: 2.2634934059e-08 max: 2.82247646505e-07
deltaT = 1.54070163545e-06
Time = 7.203509065e-06

Inner iteration:  0

DICPCG:  Solving for Ux, Initial residual = 0.0264352141228, Final residual = 4.9576519265e-11, No Iterations 2
DICPCG:  Solving for Uy, Initial residual = 0.0994404716778, Final residual = 6.58557871802e-15, No Iterations 3
DICPCG:  Solving for p, Initial residual = 0.000208265986646, Final residual = 2.1908751545e-11, No Iterations 33
time step continuity errors : sum local = 1.45673587481e-18, global = -4.7058618295e-21, cumulative = 7.06954061599e-21
DILUPBiCG:  Solving for tauxx, Initial residual = 0.0736847847841, Final residual = 6.44758135138e-17, No Iterations 1
DILUPBiCG:  Solving for tauxy, Initial residual = 0.0853650468938, Final residual = 4.10348769433e-17, No Iterations 1
DILUPBiCG:  Solving for tauyy, Initial residual = 0.0428110386911, Final residual = 2.38524037942e-17, No Iterations 1
DILUPBiCG:  Solving for tauzz, Initial residual = 0, Final residual = 0, No Iterations 0
DICPCG:  Solving for psi, Initial residual = 1.18617925016e-11, Final residual = 1.18617925016e-11, No Iterations 0
ExecutionTime = 0.29 s  ClockTime = 0 s

Courant Number mean: 3.27667676565e-08 max: 3.9988457515e-07
deltaT = 1.8488418486e-06
Time = 8.7442107e-06

Inner iteration:  0

DICPCG:  Solving for Ux, Initial residual = 0.0249717709428, Final residual = 7.10011357213e-11, No Iterations 2
DICPCG:  Solving for Uy, Initial residual = 0.0785901759371, Final residual = 8.26908781692e-15, No Iterations 3
DICPCG:  Solving for p, Initial residual = 0.000172617659359, Final residual = 1.17839207253e-11, No Iterations 33
time step continuity errors : sum local = 2.11005209303e-18, global = -1.64795824707e-20, cumulative = -9.41004185469e-21
DILUPBiCG:  Solving for tauxx, Initial residual = 0.0711105968168, Final residual = 7.83176525683e-18, No Iterations 1
DILUPBiCG:  Solving for tauxy, Initial residual = 0.0833528911873, Final residual = 1.12576814595e-17, No Iterations 1
DILUPBiCG:  Solving for tauyy, Initial residual = 0.0431311822678, Final residual = 1.79297882683e-17, No Iterations 1
DILUPBiCG:  Solving for tauzz, Initial residual = 0, Final residual = 0, No Iterations 0
DICPCG:  Solving for psi, Initial residual = 1.18617925016e-11, Final residual = 1.18617925016e-11, No Iterations 0
ExecutionTime = 0.3 s  ClockTime = 0 s

Courant Number mean: 4.72554951857e-08 max: 5.63972606435e-07
deltaT = 2.21860956203e-06
Time = 1.059305255e-05

Inner iteration:  0

DICPCG:  Solving for Ux, Initial residual = 0.0235338067516, Final residual = 1.12096061038e-14, No Iterations 3
DICPCG:  Solving for Uy, Initial residual = 0.0618696599562, Final residual = 9.55984472464e-15, No Iterations 3
DICPCG:  Solving for p, Initial residual = 0.00014559205055, Final residual = 6.68472723648e-12, No Iterations 33
time step continuity errors : sum local = 3.15316939351e-18, global = 3.6335928782e-20, cumulative = 2.69258869273e-20
DILUPBiCG:  Solving for tauxx, Initial residual = 0.0691686346731, Final residual = 4.6906642034e-17, No Iterations 1
DILUPBiCG:  Solving for tauxy, Initial residual = 0.0815856496312, Final residual = 4.5607421129e-17, No Iterations 1
DILUPBiCG:  Solving for tauyy, Initial residual = 0.0432373790409, Final residual = 2.64318298228e-17, No Iterations 1
DILUPBiCG:  Solving for tauzz, Initial residual = 0, Final residual = 0, No Iterations 0
DICPCG:  Solving for psi, Initial residual = 1.18617925016e-11, Final residual = 1.18617925016e-11, No Iterations 0
ExecutionTime = 0.31 s  ClockTime = 0 s

Courant Number mean: 6.7925043148e-08 max: 7.91884851757e-07
deltaT = 2.66233052936e-06
Time = 1.281166211e-05

Inner iteration:  0

DICPCG:  Solving for Ux, Initial residual = 0.0221092744904, Final residual = 1.86104118033e-14, No Iterations 3
DICPCG:  Solving for Uy, Initial residual = 0.0496303261048, Final residual = 1.3540931557e-14, No Iterations 3
DICPCG:  Solving for p, Initial residual = 0.00012306763204, Final residual = 7.35094327121e-11, No Iterations 32
time step continuity errors : sum local = 5.07719835094e-18, global = 7.48445928235e-20, cumulative = 1.01770479751e-19
DILUPBiCG:  Solving for tauxx, Initial residual = 0.0676477559452, Final residual = 3.92854464159e-17, No Iterations 1
DILUPBiCG:  Solving for tauxy, Initial residual = 0.0800340990549, Final residual = 2.04892706417e-17, No Iterations 1
DILUPBiCG:  Solving for tauyy, Initial residual = 0.043562548296, Final residual = 6.24120797401e-17, No Iterations 1
DILUPBiCG:  Solving for tauzz, Initial residual = 0, Final residual = 0, No Iterations 0
DICPCG:  Solving for psi, Initial residual = 1.18617925016e-11, Final residual = 1.18617925016e-11, No Iterations 0
ExecutionTime = 0.32 s  ClockTime = 0 s

Courant Number mean: 9.73471551732e-08 max: 1.10742042383e-06
deltaT = 3.19479663523e-06
Time = 1.547399264e-05

Inner iteration:  0

DICPCG:  Solving for Ux, Initial residual = 0.0206940043423, Final residual = 3.05741399376e-14, No Iterations 3
DICPCG:  Solving for Uy, Initial residual = 0.0396039636127, Final residual = 2.52208452298e-14, No Iterations 3
DICPCG:  Solving for p, Initial residual = 0.000105545990265, Final residual = 5.62599935617e-11, No Iterations 32
time step continuity errors : sum local = 6.86557781462e-18, global = -7.46622108525e-21, cumulative = 9.43042586655e-20
DILUPBiCG:  Solving for tauxx, Initial residual = 0.0664182552377, Final residual = 3.09926955847e-17, No Iterations 1
DILUPBiCG:  Solving for tauxy, Initial residual = 0.078657562826, Final residual = 5.852605271e-17, No Iterations 1
DILUPBiCG:  Solving for tauyy, Initial residual = 0.0439066393737, Final residual = 9.32026962845e-17, No Iterations 1
DILUPBiCG:  Solving for tauzz, Initial residual = 0, Final residual = 0, No Iterations 0
DICPCG:  Solving for psi, Initial residual = 1.18617925016e-11, Final residual = 1.18617925016e-11, No Iterations 0
ExecutionTime = 0.33 s  ClockTime = 0 s

Courant Number mean: 1.39139982196e-07 max: 1.54289085812e-06
deltaT = 3.83375351266e-06
Time = 1.866878928e-05

Inner iteration:  0

DICPCG:  Solving for Ux, Initial residual = 0.0192899491013, Final residual = 4.95566687057e-14, No Iterations 3
DICPCG:  Solving for Uy, Initial residual = 0.032110993073, Final residual = 4.47925461468e-14, No Iterations 3
DICPCG:  Solving for p, Initial residual = 9.21612622882e-05, Final residual = 4.56080770701e-11, No Iterations 32
time step continuity errors : sum local = 9.85245689587e-18, global = -2.07705490168e-20, cumulative = 7.35337096488e-20
DILUPBiCG:  Solving for tauxx, Initial residual = 0.0654109528375, Final residual = 3.07512085391e-17, No Iterations 1
DILUPBiCG:  Solving for tauxy, Initial residual = 0.0774012861892, Final residual = 4.42932573448e-17, No Iterations 1
DILUPBiCG:  Solving for tauyy, Initial residual = 0.0440632075238, Final residual = 1.5249077088e-16, No Iterations 1
DILUPBiCG:  Solving for tauzz, Initial residual = 0, Final residual = 0, No Iterations 0
DICPCG:  Solving for psi, Initial residual = 1.18617925016e-11, Final residual = 1.18617925016e-11, No Iterations 0
ExecutionTime = 0.34 s  ClockTime = 0 s

Courant Number mean: 1.9838252358e-07 max: 2.14202123878e-06
deltaT = 4.60050209872e-06
Time = 2.250254279e-05

Inner iteration:  0

DICPCG:  Solving for Ux, Initial residual = 0.0179033253908, Final residual = 7.91624588237e-14, No Iterations 3
DICPCG:  Solving for Uy, Initial residual = 0.0263925390404, Final residual = 7.58742095376e-14, No Iterations 3
DICPCG:  Solving for p, Initial residual = 8.11008707572e-05, Final residual = 3.69095594975e-11, No Iterations 32
time step continuity errors : sum local = 1.40792100141e-17, global = 2.84636004903e-20, cumulative = 1.01997310139e-19
DILUPBiCG:  Solving for tauxx, Initial residual = 0.0645630618687, Final residual = 4.71949217664e-17, No Iterations 1
DILUPBiCG:  Solving for tauxy, Initial residual = 0.0762547810501, Final residual = 7.589575159e-17, No Iterations 1
DILUPBiCG:  Solving for tauyy, Initial residual = 0.044094044905, Final residual = 2.11734264963e-16, No Iterations 1
DILUPBiCG:  Solving for tauzz, Initial residual = 0, Final residual = 0, No Iterations 0
DICPCG:  Solving for psi, Initial residual = 1.18617925016e-11, Final residual = 1.18617925016e-11, No Iterations 0
ExecutionTime = 0.34 s  ClockTime = 0 s

Courant Number mean: 2.82197609928e-07 max: 2.96379636714e-06
deltaT = 5.52059845484e-06
Time = 2.710304489e-05

Inner iteration:  0

DICPCG:  Solving for Ux, Initial residual = 0.0165438328367, Final residual = 1.24610159182e-13, No Iterations 3
DICPCG:  Solving for Uy, Initial residual = 0.0219072050586, Final residual = 1.241503479e-13, No Iterations 3
DICPCG:  Solving for p, Initial residual = 7.10095120747e-05, Final residual = 2.93608596246e-11, No Iterations 32
time step continuity errors : sum local = 1.91457766261e-17, global = 1.65766624644e-19, cumulative = 2.67763934783e-19
DILUPBiCG:  Solving for tauxx, Initial residual = 0.0638411231103, Final residual = 1.05647876976e-16, No Iterations 1
DILUPBiCG:  Solving for tauxy, Initial residual = 0.0751962446085, Final residual = 1.41932166644e-16, No Iterations 1
DILUPBiCG:  Solving for tauyy, Initial residual = 0.0439609887962, Final residual = 3.74277473214e-16, No Iterations 1
DILUPBiCG:  Solving for tauzz, Initial residual = 0, Final residual = 0, No Iterations 0
DICPCG:  Solving for psi, Initial residual = 1.18617925016e-11, Final residual = 1.18617925016e-11, No Iterations 0
ExecutionTime = 0.35 s  ClockTime = 0 s

Courant Number mean: 4.0053355612e-07 max: 4.08751750296e-06
deltaT = 6.62471083128e-06
Time = 3.262364334e-05

Inner iteration:  0

DICPCG:  Solving for Ux, Initial residual = 0.0152223333823, Final residual = 1.93321853837e-13, No Iterations 3
DICPCG:  Solving for Uy, Initial residual = 0.0182468116049, Final residual = 1.95848083786e-13, No Iterations 3
DICPCG:  Solving for p, Initial residual = 6.16011403034e-05, Final residual = 2.32465396476e-11, No Iterations 32
time step continuity errors : sum local = 2.7236457221e-17, global = -2.86489866993e-19, cumulative = -1.87259322098e-20
DILUPBiCG:  Solving for tauxx, Initial residual = 0.063213052372, Final residual = 1.62334689525e-16, No Iterations 1
DILUPBiCG:  Solving for tauxy, Initial residual = 0.0742030423507, Final residual = 2.85109571767e-16, No Iterations 1
DILUPBiCG:  Solving for tauyy, Initial residual = 0.0436870789444, Final residual = 6.10288068839e-16, No Iterations 1
DILUPBiCG:  Solving for tauzz, Initial residual = 0, Final residual = 0, No Iterations 0
DICPCG:  Solving for psi, Initial residual = 1.18617925016e-11, Final residual = 1.18617925016e-11, No Iterations 0
ExecutionTime = 0.36 s  ClockTime = 0 s

Courant Number mean: 5.67265337532e-07 max: 5.61944981978e-06
deltaT = 7.94964457122e-06
Time = 3.924835417e-05

Inner iteration:  0

DICPCG:  Solving for Ux, Initial residual = 0.0139496978702, Final residual = 2.95737213064e-13, No Iterations 3
DICPCG:  Solving for Uy, Initial residual = 0.0151916973462, Final residual = 2.92903710397e-13, No Iterations 3
DICPCG:  Solving for p, Initial residual = 5.47095967886e-05, Final residual = 1.84297195861e-11, No Iterations 32
time step continuity errors : sum local = 4.02660458981e-17, global = -9.13942773074e-20, cumulative = -1.10120209517e-19
DILUPBiCG:  Solving for tauxx, Initial residual = 0.0626615499085, Final residual = 2.49476522952e-16, No Iterations 1
DILUPBiCG:  Solving for tauxy, Initial residual = 0.0732656463931, Final residual = 4.36164956053e-16, No Iterations 1
DILUPBiCG:  Solving for tauyy, Initial residual = 0.0432486594449, Final residual = 9.92999212509e-16, No Iterations 1
DILUPBiCG:  Solving for tauzz, Initial residual = 0, Final residual = 0, No Iterations 0
DICPCG:  Solving for psi, Initial residual = 1.18617925016e-11, Final residual = 1.18617925016e-11, No Iterations 0
ExecutionTime = 0.37 s  ClockTime = 0 s

Courant Number mean: 8.01742864129e-07 max: 7.70151568774e-06
deltaT = 9.53956438504e-06
Time = 4.719799874e-05

Inner iteration:  0

DICPCG:  Solving for Ux, Initial residual = 0.0127358424687, Final residual = 4.46448461981e-13, No Iterations 3
DICPCG:  Solving for Uy, Initial residual = 0.0130072696261, Final residual = 4.15725476509e-13, No Iterations 3
DICPCG:  Solving for p, Initial residual = 4.83359018607e-05, Final residual = 1.48835528302e-11, No Iterations 32
time step continuity errors : sum local = 5.72207374719e-17, global = -3.2700400681e-19, cumulative = -4.37124216327e-19
DILUPBiCG:  Solving for tauxx, Initial residual = 0.0621699628699, Final residual = 4.27256113789e-16, No Iterations 1
DILUPBiCG:  Solving for tauxy, Initial residual = 0.0723812521407, Final residual = 7.68379193043e-16, No Iterations 1
DILUPBiCG:  Solving for tauyy, Initial residual = 0.0429219958778, Final residual = 1.56347286033e-15, No Iterations 1
DILUPBiCG:  Solving for tauzz, Initial residual = 0, Final residual = 0, No Iterations 0
DICPCG:  Solving for psi, Initial residual = 1.18617925016e-11, Final residual = 1.18617925016e-11, No Iterations 0
ExecutionTime = 0.38 s  ClockTime = 0 s

Courant Number mean: 1.13074423239e-06 max: 1.05226135591e-05
deltaT = 1.14474641574e-05
Time = 5.673756313e-05

Inner iteration:  0

DICPCG:  Solving for Ux, Initial residual = 0.0115889514326, Final residual = 6.67482395094e-13, No Iterations 3
DICPCG:  Solving for Uy, Initial residual = 0.0113266714435, Final residual = 5.66827008562e-13, No Iterations 3
DICPCG:  Solving for p, Initial residual = 4.29356283722e-05, Final residual = 1.20927885843e-11, No Iterations 32
time step continuity errors : sum local = 8.30456711584e-17, global = 2.26195453919e-20, cumulative = -4.14504670935e-19
DILUPBiCG:  Solving for tauxx, Initial residual = 0.0617223407342, Final residual = 7.04113691293e-16, No Iterations 1
DILUPBiCG:  Solving for tauxy, Initial residual = 0.0715420781998, Final residual = 1.19827305638e-15, No Iterations 1
DILUPBiCG:  Solving for tauyy, Initial residual = 0.0426118317396, Final residual = 2.43332795446e-15, No Iterations 1
DILUPBiCG:  Solving for tauzz, Initial residual = 0, Final residual = 0, No Iterations 0
DICPCG:  Solving for psi, Initial residual = 1.18617925016e-11, Final residual = 1.18617925016e-11, No Iterations 0
ExecutionTime = 0.38 s  ClockTime = 0 s

Courant Number mean: 1.59142398396e-06 max: 1.43333084864e-05
deltaT = 1.37369444085e-05
Time = 6.818502729e-05

Inner iteration:  0

DICPCG:  Solving for Ux, Initial residual = 0.0105150852473, Final residual = 1.00414785848e-12, No Iterations 3
DICPCG:  Solving for Uy, Initial residual = 0.0100740460389, Final residual = 7.58674194938e-13, No Iterations 3
DICPCG:  Solving for p, Initial residual = 3.77601228439e-05, Final residual = 9.8517986598e-12, No Iterations 32
time step continuity errors : sum local = 1.18500659724e-16, global = 8.4119142407e-19, cumulative = 4.26686753135e-19
DILUPBiCG:  Solving for tauxx, Initial residual = 0.0613120137398, Final residual = 1.12260035966e-15, No Iterations 1
DILUPBiCG:  Solving for tauxy, Initial residual = 0.0707389077648, Final residual = 1.84717201706e-15, No Iterations 1
DILUPBiCG:  Solving for tauyy, Initial residual = 0.0424264974541, Final residual = 3.87466160233e-15, No Iterations 1
DILUPBiCG:  Solving for tauzz, Initial residual = 0, Final residual = 0, No Iterations 0
DICPCG:  Solving for psi, Initial residual = 1.18617925016e-11, Final residual = 1.18617925016e-11, No Iterations 0
ExecutionTime = 0.39 s  ClockTime = 0 s

Courant Number mean: 2.23492450061e-06 max: 1.94648450504e-05
deltaT = 1.64842970586e-05
Time = 8.19219717e-05

Inner iteration:  0

DICPCG:  Solving for Ux, Initial residual = 0.0095180856359, Final residual = 1.51545423932e-12, No Iterations 3
DICPCG:  Solving for Uy, Initial residual = 0.00910489021608, Final residual = 1.00919284364e-12, No Iterations 3
DICPCG:  Solving for p, Initial residual = 3.41052772364e-05, Final residual = 8.02999372885e-12, No Iterations 32
time step continuity errors : sum local = 1.70438931743e-16, global = 1.31448714978e-18, cumulative = 1.74117390291e-18
DILUPBiCG:  Solving for tauxx, Initial residual = 0.0609294974393, Final residual = 1.85863863025e-15, No Iterations 1
DILUPBiCG:  Solving for tauxy, Initial residual = 0.0699705023207, Final residual = 2.96443736137e-15, No Iterations 1
DILUPBiCG:  Solving for tauyy, Initial residual = 0.0423814772343, Final residual = 6.08083372347e-15, No Iterations 1
DILUPBiCG:  Solving for tauzz, Initial residual = 0, Final residual = 0, No Iterations 0
DICPCG:  Solving for psi, Initial residual = 1.18617925016e-11, Final residual = 1.18617925016e-11, No Iterations 0
ExecutionTime = 0.4 s  ClockTime = 0 s

Courant Number mean: 3.13178020761e-06 max: 2.63535701569e-05
deltaT = 1.97811434269e-05
Time = 9.840626875e-05

Inner iteration:  0

DICPCG:  Solving for Ux, Initial residual = 0.00859950024627, Final residual = 2.28790738078e-12, No Iterations 3
DICPCG:  Solving for Uy, Initial residual = 0.00836357269432, Final residual = 1.33553415946e-12, No Iterations 3
DICPCG:  Solving for p, Initial residual = 3.02475354218e-05, Final residual = 6.60099069966e-12, No Iterations 32
time step continuity errors : sum local = 2.44853792858e-16, global = 3.74011596346e-18, cumulative = 5.48128986638e-18
DILUPBiCG:  Solving for tauxx, Initial residual = 0.0605661992477, Final residual = 3.02664701196e-15, No Iterations 1
DILUPBiCG:  Solving for tauxy, Initial residual = 0.0692344405197, Final residual = 4.72211490886e-15, No Iterations 1
DILUPBiCG:  Solving for tauyy, Initial residual = 0.0425465972086, Final residual = 9.63700891828e-15, No Iterations 1
DILUPBiCG:  Solving for tauzz, Initial residual = 0, Final residual = 0, No Iterations 0
DICPCG:  Solving for psi, Initial residual = 1.18617925016e-11, Final residual = 1.18617925016e-11, No Iterations 0
ExecutionTime = 0.41 s  ClockTime = 0 s

Courant Number mean: 4.37859715253e-06 max: 3.55724910744e-05
deltaT = 2.37372969824e-05
Time = 0.0001181874122

Inner iteration:  0

DICPCG:  Solving for Ux, Initial residual = 0.00775888129385, Final residual = 3.44591339135e-12, No Iterations 3
DICPCG:  Solving for Uy, Initial residual = 0.00780992290029, Final residual = 1.7698968286e-12, No Iterations 3
DICPCG:  Solving for p, Initial residual = 2.70452325837e-05, Final residual = 5.61120040175e-12, No Iterations 32
time step continuity errors : sum local = 3.51573952113e-16, global = 6.9721174518e-18, cumulative = 1.24534073182e-17
DILUPBiCG:  Solving for tauxx, Initial residual = 0.0602197052172, Final residual = 4.86984159555e-15, No Iterations 1
DILUPBiCG:  Solving for tauxy, Initial residual = 0.0685269960739, Final residual = 7.60879835041e-15, No Iterations 1
DILUPBiCG:  Solving for tauyy, Initial residual = 0.0429695959242, Final residual = 1.5180189933e-14, No Iterations 1
DILUPBiCG:  Solving for tauzz, Initial residual = 0, Final residual = 0, No Iterations 0
DICPCG:  Solving for psi, Initial residual = 1.18617925016e-11, Final residual = 1.18617925016e-11, No Iterations 0
ExecutionTime = 0.42 s  ClockTime = 0 s

Courant Number mean: 6.10733726127e-06 max: 4.78711123157e-05
deltaT = 2.84846752387e-05
Time = 0.0001419247092

Inner iteration:  0

DICPCG:  Solving for Ux, Initial residual = 0.00699412800171, Final residual = 5.16853412103e-12, No Iterations 3
DICPCG:  Solving for Uy, Initial residual = 0.00740116878067, Final residual = 2.37144051177e-12, No Iterations 3
DICPCG:  Solving for p, Initial residual = 2.43490886476e-05, Final residual = 4.96507903026e-12, No Iterations 32
time step continuity errors : sum local = 4.90454048738e-16, global = -2.98654068656e-18, cumulative = 9.46686663162e-18
DILUPBiCG:  Solving for tauxx, Initial residual = 0.0598812931428, Final residual = 7.9054627329e-15, No Iterations 1
DILUPBiCG:  Solving for tauxy, Initial residual = 0.0678504824498, Final residual = 1.20260386188e-14, No Iterations 1
DILUPBiCG:  Solving for tauyy, Initial residual = 0.0437133339325, Final residual = 2.39451589781e-14, No Iterations 1
DILUPBiCG:  Solving for tauzz, Initial residual = 0, Final residual = 0, No Iterations 0
DICPCG:  Solving for psi, Initial residual = 1.18617925016e-11, Final residual = 1.18617925016e-11, No Iterations 0
ExecutionTime = 0.43 s  ClockTime = 0 s

Courant Number mean: 8.49776939968e-06 max: 6.42270264449e-05
deltaT = 3.41814934446e-05
Time = 0.0001704093844

Inner iteration:  0

DICPCG:  Solving for Ux, Initial residual = 0.0063018672026, Final residual = 7.7037048173e-12, No Iterations 3
DICPCG:  Solving for Uy, Initial residual = 0.00709820237365, Final residual = 3.28357538353e-12, No Iterations 3
DICPCG:  Solving for p, Initial residual = 2.18812251068e-05, Final residual = 4.43688525125e-12, No Iterations 32
time step continuity errors : sum local = 7.27642727726e-16, global = 1.10021620188e-17, cumulative = 2.04690286504e-17
DILUPBiCG:  Solving for tauxx, Initial residual = 0.0595485591664, Final residual = 1.26074122562e-14, No Iterations 1
DILUPBiCG:  Solving for tauxy, Initial residual = 0.0672041070868, Final residual = 1.88405669702e-14, No Iterations 1
DILUPBiCG:  Solving for tauyy, Initial residual = 0.0447934814766, Final residual = 3.77371199729e-14, No Iterations 1
DILUPBiCG:  Solving for tauzz, Initial residual = 0, Final residual = 0, No Iterations 0
DICPCG:  Solving for psi, Initial residual = 1.18617925016e-11, Final residual = 1.18617925016e-11, No Iterations 0
ExecutionTime = 0.44 s  ClockTime = 0 s

Courant Number mean: 1.17936907725e-05 max: 8.59104672527e-05
deltaT = 4.10175677976e-05
Time = 0.0002045908778

Inner iteration:  0

DICPCG:  Solving for Ux, Initial residual = 0.00567782398004, Final residual = 1.14137063958e-11, No Iterations 3
DICPCG:  Solving for Uy, Initial residual = 0.00686260156564, Final residual = 4.91683640257e-12, No Iterations 3
DICPCG:  Solving for p, Initial residual = 1.95700744418e-05, Final residual = 4.02101606709e-12, No Iterations 32
time step continuity errors : sum local = 1.03943096266e-15, global = -2.42802337854e-17, cumulative = -3.81120513498e-18
DILUPBiCG:  Solving for tauxx, Initial residual = 0.0592223584227, Final residual = 2.01826863588e-14, No Iterations 1
DILUPBiCG:  Solving for tauxy, Initial residual = 0.0665892415771, Final residual = 2.97427415755e-14, No Iterations 1
DILUPBiCG:  Solving for tauyy, Initial residual = 0.0463071733489, Final residual = 5.96194842005e-14, No Iterations 1
DILUPBiCG:  Solving for tauzz, Initial residual = 0, Final residual = 0, No Iterations 0
DICPCG:  Solving for psi, Initial residual = 1.18617925016e-11, Final residual = 1.18617925016e-11, No Iterations 0
ExecutionTime = 0.44 s  ClockTime = 0 s

Courant Number mean: 1.63249223624e-05 max: 0.000114566352401
deltaT = 4.92208390749e-05
Time = 0.0002456084456

Inner iteration:  0

DICPCG:  Solving for Ux, Initial residual = 0.00511713313347, Final residual = 1.67545721795e-11, No Iterations 3
DICPCG:  Solving for Uy, Initial residual = 0.00667943959313, Final residual = 8.20860446931e-12, No Iterations 3
DICPCG:  Solving for p, Initial residual = 1.77320299455e-05, Final residual = 3.61907770606e-12, No Iterations 32
time step continuity errors : sum local = 1.52558987453e-15, global = -8.27787920016e-18, cumulative = -1.20890843351e-17
DILUPBiCG:  Solving for tauxx, Initial residual = 0.0588909102372, Final residual = 3.21107720725e-14, No Iterations 1
DILUPBiCG:  Solving for tauxy, Initial residual = 0.0660048914301, Final residual = 4.68132235535e-14, No Iterations 1
DILUPBiCG:  Solving for tauyy, Initial residual = 0.0483262172559, Final residual = 9.41705694812e-14, No Iterations 1
DILUPBiCG:  Solving for tauzz, Initial residual = 0, Final residual = 0, No Iterations 0
DICPCG:  Solving for psi, Initial residual = 1.18617925016e-11, Final residual = 1.18617925016e-11, No Iterations 0
ExecutionTime = 0.45 s  ClockTime = 0 s

Courant Number mean: 2.25352258779e-05 max: 0.000152318143476
deltaT = 5.90646580039e-05
Time = 0.0002948292847

Inner iteration:  0

DICPCG:  Solving for Ux, Initial residual = 0.00461466037407, Final residual = 2.42913789755e-11, No Iterations 3
DICPCG:  Solving for Uy, Initial residual = 0.00652245207611, Final residual = 1.55949301105e-11, No Iterations 3
DICPCG:  Solving for p, Initial residual = 1.6015986926e-05, Final residual = 3.27022237525e-12, No Iterations 32
time step continuity errors : sum local = 2.17580457968e-15, global = -6.14543910515e-17, cumulative = -7.35434753866e-17
DILUPBiCG:  Solving for tauxx, Initial residual = 0.0585618566669, Final residual = 5.10124743872e-14, No Iterations 1
DILUPBiCG:  Solving for tauxy, Initial residual = 0.0654509327023, Final residual = 7.30831521936e-14, No Iterations 1
DILUPBiCG:  Solving for tauyy, Initial residual = 0.0508894627809, Final residual = 1.48838743618e-13, No Iterations 1
DILUPBiCG:  Solving for tauzz, Initial residual = 0, Final residual = 0, No Iterations 0
DICPCG:  Solving for psi, Initial residual = 1.18617925016e-11, Final residual = 1.18617925016e-11, No Iterations 0
ExecutionTime = 0.46 s  ClockTime = 0 s

Courant Number mean: 3.10179654694e-05 max: 0.000201896531736
deltaT = 7.08767522832e-05
Time = 0.0003538939427

Inner iteration:  0

DICPCG:  Solving for Ux, Initial residual = 0.00416511803459, Final residual = 3.4743364591e-11, No Iterations 3
DICPCG:  Solving for Uy, Initial residual = 0.00639593217167, Final residual = 3.28871644856e-11, No Iterations 3
DICPCG:  Solving for p, Initial residual = 1.4345002131e-05, Final residual = 2.94730227907e-12, No Iterations 32
time step continuity errors : sum local = 3.14580245323e-15, global = 2.85092916798e-17, cumulative = -4.50341837068e-17
DILUPBiCG:  Solving for tauxx, Initial residual = 0.0582267383175, Final residual = 8.07831749124e-14, No Iterations 1
DILUPBiCG:  Solving for tauxy, Initial residual = 0.0649250106474, Final residual = 1.14310337816e-13, No Iterations 1
DILUPBiCG:  Solving for tauyy, Initial residual = 0.0539716620268, Final residual = 2.35185567569e-13, No Iterations 1
DILUPBiCG:  Solving for tauzz, Initial residual = 0, Final residual = 0, No Iterations 0
DICPCG:  Solving for psi, Initial residual = 1.18617925016e-11, Final residual = 1.18617925016e-11, No Iterations 0
ExecutionTime = 0.47 s  ClockTime = 0 s

Courant Number mean: 4.2565530973e-05 max: 0.000266800262626
deltaT = 8.50513792985e-05
Time = 0.000424770695

Inner iteration:  0

DICPCG:  Solving for Ux, Initial residual = 0.00376338861842, Final residual = 4.90489887253e-11, No Iterations 3
DICPCG:  Solving for Uy, Initial residual = 0.0062668573901, Final residual = 7.01292529784e-11, No Iterations 3
DICPCG:  Solving for p, Initial residual = 1.30751137569e-05, Final residual = 2.6838728091e-12, No Iterations 32
time step continuity errors : sum local = 4.46537313504e-15, global = 9.20588869087e-17, cumulative = 4.70247032018e-17
DILUPBiCG:  Solving for tauxx, Initial residual = 0.0578873210579, Final residual = 1.27511462262e-13, No Iterations 1
DILUPBiCG:  Solving for tauxy, Initial residual = 0.064427161796, Final residual = 1.78237559105e-13, No Iterations 1
DILUPBiCG:  Solving for tauyy, Initial residual = 0.0575672907976, Final residual = 3.7102833214e-13, No Iterations 1
DILUPBiCG:  Solving for tauzz, Initial residual = 0, Final residual = 0, No Iterations 0
DICPCG:  Solving for psi, Initial residual = 1.18617925016e-11, Final residual = 1.18617925016e-11, No Iterations 0
ExecutionTime = 0.48 s  ClockTime = 0 s

Courant Number mean: 5.82308735101e-05 max: 0.0003515014651
deltaT = 0.000102061655158
Time = 0.0005098220743

Inner iteration:  0

DICPCG:  Solving for Ux, Initial residual = 0.00340448839162, Final residual = 6.85003266309e-11, No Iterations 3
DICPCG:  Solving for Uy, Initial residual = 0.00613275032392, Final residual = 3.76947806638e-13, No Iterations 4
DICPCG:  Solving for p, Initial residual = 1.17772272649e-05, Final residual = 2.45683804445e-12, No Iterations 32
time step continuity errors : sum local = 6.63542324775e-15, global = 1.4508135431e-16, cumulative = 1.92106057512e-16
DILUPBiCG:  Solving for tauxx, Initial residual = 0.0575439367153, Final residual = 2.00556679725e-13, No Iterations 1
DILUPBiCG:  Solving for tauxy, Initial residual = 0.0639549678962, Final residual = 2.77769501902e-13, No Iterations 1
DILUPBiCG:  Solving for tauyy, Initial residual = 0.0618040240855, Final residual = 5.85400967798e-13, No Iterations 1
DILUPBiCG:  Solving for tauzz, Initial residual = 0, Final residual = 0, No Iterations 0
DICPCG:  Solving for psi, Initial residual = 1.18617925016e-11, Final residual = 1.18617925016e-11, No Iterations 0
ExecutionTime = 0.49 s  ClockTime = 0 s

Courant Number mean: 7.93966581018e-05 max: 0.000461691820561
deltaT = 0.00012247398619
Time = 0.0006118837295

Inner iteration:  0

DICPCG:  Solving for Ux, Initial residual = 0.00308373782848, Final residual = 9.51630613744e-11, No Iterations 3
DICPCG:  Solving for Uy, Initial residual = 0.00599508150782, Final residual = 8.58062748142e-13, No Iterations 4
DICPCG:  Solving for p, Initial residual = 1.06832918918e-05, Final residual = 2.53139072114e-12, No Iterations 32
time step continuity errors : sum local = 9.45439630912e-15, global = -5.6212745624e-17, cumulative = 1.35893311888e-16
DILUPBiCG:  Solving for tauxx, Initial residual = 0.0571901633578, Final residual = 3.14864875406e-13, No Iterations 1
DILUPBiCG:  Solving for tauxy, Initial residual = 0.0635074551766, Final residual = 4.3273043862e-13, No Iterations 1
DILUPBiCG:  Solving for tauyy, Initial residual = 0.0666004575807, Final residual = 9.26813992733e-13, No Iterations 1
DILUPBiCG:  Solving for tauzz, Initial residual = 0, Final residual = 0, No Iterations 0
DICPCG:  Solving for psi, Initial residual = 1.18617925016e-11, Final residual = 1.18617925016e-11, No Iterations 0
ExecutionTime = 0.49 s  ClockTime = 0 s

Courant Number mean: 0.000107889294088 max: 0.000604580867382
deltaT = 0.000146968063332
Time = 0.0007343577157

Inner iteration:  0

DICPCG:  Solving for Ux, Initial residual = 0.00279675393347, Final residual = 9.93111778351e-13, No Iterations 4
DICPCG:  Solving for Uy, Initial residual = 0.00585954973283, Final residual = 2.27252601064e-12, No Iterations 4
DICPCG:  Solving for p, Initial residual = 9.63674311345e-06, Final residual = 3.59838093828e-12, No Iterations 32
time step continuity errors : sum local = 1.34296902094e-14, global = -3.82415429479e-17, cumulative = 9.765176894e-17
DILUPBiCG:  Solving for tauxx, Initial residual = 0.0568300710699, Final residual = 4.9330221827e-13, No Iterations 1
DILUPBiCG:  Solving for tauxy, Initial residual = 0.0630810300022, Final residual = 6.77049514604e-13, No Iterations 1
DILUPBiCG:  Solving for tauyy, Initial residual = 0.0720656249051, Final residual = 1.49336023005e-12, No Iterations 1
DILUPBiCG:  Solving for tauzz, Initial residual = 0, Final residual = 0, No Iterations 0
DICPCG:  Solving for psi, Initial residual = 1.18617925016e-11, Final residual = 1.18617925016e-11, No Iterations 0
ExecutionTime = 0.5 s  ClockTime = 0 s

Courant Number mean: 0.000146069078437 max: 0.000789270783689
deltaT = 0.00017636063904
Time = 0.000881325779

Inner iteration:  0

DICPCG:  Solving for Ux, Initial residual = 0.0025394977623, Final residual = 1.54643268098e-12, No Iterations 4
DICPCG:  Solving for Uy, Initial residual = 0.00571037672727, Final residual = 6.11669346923e-12, No Iterations 4
DICPCG:  Solving for p, Initial residual = 8.76457748333e-06, Final residual = 5.70985459725e-12, No Iterations 32
time step continuity errors : sum local = 1.95371339481e-14, global = -4.09427741944e-16, cumulative = -3.11775973004e-16
DILUPBiCG:  Solving for tauxx, Initial residual = 0.0564583604841, Final residual = 7.72465705465e-13, No Iterations 1
DILUPBiCG:  Solving for tauxy, Initial residual = 0.0626696100378, Final residual = 1.06542446738e-12, No Iterations 1
DILUPBiCG:  Solving for tauyy, Initial residual = 0.0786653489357, Final residual = 2.56658373961e-12, No Iterations 1
DILUPBiCG:  Solving for tauzz, Initial residual = 0, Final residual = 0, No Iterations 0
DICPCG:  Solving for psi, Initial residual = 1.18617925016e-11, Final residual = 1.18617925016e-11, No Iterations 0
ExecutionTime = 0.51 s  ClockTime = 0 s

Courant Number mean: 0.000197006204681 max: 0.00102721178594
deltaT = 0.000211631273595
Time = 0.001057686418

Inner iteration:  0

DICPCG:  Solving for Ux, Initial residual = 0.00230826986863, Final residual = 2.36240654171e-12, No Iterations 4
DICPCG:  Solving for Uy, Initial residual = 0.00557662235514, Final residual = 1.58294518869e-11, No Iterations 4
DICPCG:  Solving for p, Initial residual = 7.94388699057e-06, Final residual = 7.47174765649e-12, No Iterations 32
time step continuity errors : sum local = 2.70933277836e-14, global = 1.37706966306e-16, cumulative = -1.74069006698e-16
DILUPBiCG:  Solving for tauxx, Initial residual = 0.0560760339055, Final residual = 1.21057554649e-12, No Iterations 1
DILUPBiCG:  Solving for tauxy, Initial residual = 0.0622630171747, Final residual = 1.69081841702e-12, No Iterations 1
DILUPBiCG:  Solving for tauyy, Initial residual = 0.0867908069675, Final residual = 4.78566087602e-12, No Iterations 1
DILUPBiCG:  Solving for tauzz, Initial residual = 0, Final residual = 0, No Iterations 0
DICPCG:  Solving for psi, Initial residual = 1.18617925016e-11, Final residual = 1.18617925016e-11, No Iterations 0
ExecutionTime = 0.52 s  ClockTime = 0 s

Courant Number mean: 0.000264647757864 max: 0.00133273343134
deltaT = 0.000253948927165
Time = 0.001269317692

Inner iteration:  0

DICPCG:  Solving for Ux, Initial residual = 0.00209965569603, Final residual = 3.52258670261e-12, No Iterations 4
DICPCG:  Solving for Uy, Initial residual = 0.00544307699585, Final residual = 3.54143825867e-11, No Iterations 4
DICPCG:  Solving for p, Initial residual = 7.17837239722e-06, Final residual = 9.74093606469e-11, No Iterations 31
time step continuity errors : sum local = 4.52359604379e-14, global = -2.17661560741e-16, cumulative = -3.91730567439e-16
DILUPBiCG:  Solving for tauxx, Initial residual = 0.0556777305804, Final residual = 1.90794607536e-12, No Iterations 1
DILUPBiCG:  Solving for tauxy, Initial residual = 0.0618574345108, Final residual = 2.72626980023e-12, No Iterations 1
DILUPBiCG:  Solving for tauyy, Initial residual = 0.0962646325583, Final residual = 9.98637993456e-12, No Iterations 1
DILUPBiCG:  Solving for tauzz, Initial residual = 0, Final residual = 0, No Iterations 0
DICPCG:  Solving for psi, Initial residual = 1.18617925016e-11, Final residual = 1.18617925016e-11, No Iterations 0
ExecutionTime = 0.53 s  ClockTime = 0 s

Courant Number mean: 0.000353995148687 max: 0.00172363960985
deltaT = 0.000304729423482
Time = 0.001523266619

Inner iteration:  0

DICPCG:  Solving for Ux, Initial residual = 0.00191046058984, Final residual = 5.09357029154e-12, No Iterations 4
DICPCG:  Solving for Uy, Initial residual = 0.00530471808281, Final residual = 6.74551134786e-11, No Iterations 4
DICPCG:  Solving for p, Initial residual = 6.55191467113e-06, Final residual = 9.63162022688e-12, No Iterations 32
time step continuity errors : sum local = 5.77139399602e-14, global = 2.41331740099e-16, cumulative = -1.50398827339e-16
DILUPBiCG:  Solving for tauxx, Initial residual = 0.0552627105225, Final residual = 3.03729511721e-12, No Iterations 1
DILUPBiCG:  Solving for tauxy, Initial residual = 0.0614473767033, Final residual = 4.5233552204e-12, No Iterations 1
DILUPBiCG:  Solving for tauyy, Initial residual = 0.107618518803, Final residual = 2.40387615923e-11, No Iterations 1
DILUPBiCG:  Solving for tauzz, Initial residual = 0, Final residual = 0, No Iterations 0
DICPCG:  Solving for psi, Initial residual = 1.18617925016e-11, Final residual = 1.18617925016e-11, No Iterations 0
ExecutionTime = 0.54 s  ClockTime = 0 s

Courant Number mean: 0.000471412249622 max: 0.00222207166331
deltaT = 0.000365657473404
Time = 0.001827996042

Inner iteration:  0

DICPCG:  Solving for Ux, Initial residual = 0.0017378527923, Final residual = 7.13538465037e-12, No Iterations 4
DICPCG:  Solving for Uy, Initial residual = 0.00516991383583, Final residual = 1.32721348352e-12, No Iterations 5
DICPCG:  Solving for p, Initial residual = 5.99179058884e-06, Final residual = 1.08726095527e-11, No Iterations 32
time step continuity errors : sum local = 8.45305224728e-14, global = -4.71892809515e-16, cumulative = -6.22291636855e-16
DILUPBiCG:  Solving for tauxx, Initial residual = 0.0548256691701, Final residual = 4.90509993494e-12, No Iterations 1
DILUPBiCG:  Solving for tauxy, Initial residual = 0.0610188624887, Final residual = 7.80041556606e-12, No Iterations 1
DILUPBiCG:  Solving for tauyy, Initial residual = 0.12074411492, Final residual = 6.83117236563e-11, No Iterations 1
DILUPBiCG:  Solving for tauzz, Initial residual = 0, Final residual = 0, No Iterations 0
DICPCG:  Solving for psi, Initial residual = 1.18617925016e-11, Final residual = 1.18617925016e-11, No Iterations 0
ExecutionTime = 0.55 s  ClockTime = 0 s

Courant Number mean: 0.000624904373558 max: 0.00285519728887
deltaT = 0.000438788968085
Time = 0.002193653516

Inner iteration:  0

DICPCG:  Solving for Ux, Initial residual = 0.00157907737825, Final residual = 9.73407131424e-12, No Iterations 4
DICPCG:  Solving for Uy, Initial residual = 0.00507602958425, Final residual = 2.52972351238e-12, No Iterations 5
DICPCG:  Solving for p, Initial residual = 5.5393524597e-06, Final residual = 1.28939089314e-11, No Iterations 32
time step continuity errors : sum local = 1.19155702412e-13, global = 1.98240149119e-15, cumulative = 1.36010985434e-15
DILUPBiCG:  Solving for tauxx, Initial residual = 0.054363294627, Final residual = 8.11470245974e-12, No Iterations 1
DILUPBiCG:  Solving for tauxy, Initial residual = 0.0605650884942, Final residual = 1.41298383926e-11, No Iterations 1
DILUPBiCG:  Solving for tauyy, Initial residual = 0.13550425325, Final residual = 3.23604495847e-19, No Iterations 2
DILUPBiCG:  Solving for tauzz, Initial residual = 0, Final residual = 0, No Iterations 0
DICPCG:  Solving for psi, Initial residual = 1.18617925016e-11, Final residual = 1.18617925016e-11, No Iterations 0
ExecutionTime = 0.55 s  ClockTime = 0 s

Courant Number mean: 0.000824426044051 max: 0.0036565216105
deltaT = 0.000526537515279
Time = 0.002632442484

Inner iteration:  0

DICPCG:  Solving for Ux, Initial residual = 0.00143167812234, Final residual = 1.30268025375e-11, No Iterations 4
DICPCG:  Solving for Uy, Initial residual = 0.00502152997176, Final residual = 4.51290549668e-12, No Iterations 5
DICPCG:  Solving for p, Initial residual = 5.20460020639e-06, Final residual = 1.59189115809e-11, No Iterations 32
time step continuity errors : sum local = 1.71597806758e-13, global = 1.00271098955e-15, cumulative = 2.36282084389e-15
DILUPBiCG:  Solving for tauxx, Initial residual = 0.0538646780543, Final residual = 1.38707774952e-11, No Iterations 1
DILUPBiCG:  Solving for tauxy, Initial residual = 0.0600785456558, Final residual = 2.70270618975e-11, No Iterations 1
DILUPBiCG:  Solving for tauyy, Initial residual = 0.152128657429, Final residual = 2.19606150816e-18, No Iterations 2
DILUPBiCG:  Solving for tauzz, Initial residual = 0, Final residual = 0, No Iterations 0
DICPCG:  Solving for psi, Initial residual = 1.18617925016e-11, Final residual = 1.18617925016e-11, No Iterations 0
ExecutionTime = 0.56 s  ClockTime = 0 s

Courant Number mean: 0.0010821995105 max: 0.00466629554465
deltaT = 0.000631791758756
Time = 0.003158979999

Inner iteration:  0

DICPCG:  Solving for Ux, Initial residual = 0.00129321419669, Final residual = 1.72239112677e-11, No Iterations 4
DICPCG:  Solving for Uy, Initial residual = 0.00501014291213, Final residual = 7.22276061047e-12, No Iterations 5
DICPCG:  Solving for p, Initial residual = 4.97640658503e-06, Final residual = 2.06071858305e-11, No Iterations 32
time step continuity errors : sum local = 2.55724253803e-13, global = 5.69919898588e-15, cumulative = 8.06201982977e-15
DILUPBiCG:  Solving for tauxx, Initial residual = 0.0533126310531, Final residual = 2.48252799739e-11, No Iterations 1
DILUPBiCG:  Solving for tauxy, Initial residual = 0.059536784933, Final residual = 5.4671780476e-11, No Iterations 1
DILUPBiCG:  Solving for tauyy, Initial residual = 0.169084487898, Final residual = 1.55094839547e-17, No Iterations 2
DILUPBiCG:  Solving for tauzz, Initial residual = 0, Final residual = 0, No Iterations 0
DICPCG:  Solving for psi, Initial residual = 1.18617925016e-11, Final residual = 1.18617925016e-11, No Iterations 0
ExecutionTime = 0.57 s  ClockTime = 0 s

Courant Number mean: 0.00141311443338 max: 0.0059328182294
deltaT = 0.000758150110507
Time = 0.003790771758

Inner iteration:  0

DICPCG:  Solving for Ux, Initial residual = 0.00116140338121, Final residual = 2.26403257688e-11, No Iterations 4
DICPCG:  Solving for Uy, Initial residual = 0.00496977965781, Final residual = 1.01091841656e-11, No Iterations 5
DICPCG:  Solving for p, Initial residual = 4.93058826475e-06, Final residual = 2.78640701919e-11, No Iterations 32
time step continuity errors : sum local = 3.73519689039e-13, global = 5.08012460495e-15, cumulative = 1.31421444347e-14
DILUPBiCG:  Solving for tauxx, Initial residual = 0.0526993685917, Final residual = 4.68759672782e-11, No Iterations 1
DILUPBiCG:  Solving for tauxy, Initial residual = 0.0589294897858, Final residual = 2.43441769923e-18, No Iterations 2
DILUPBiCG:  Solving for tauyy, Initial residual = 0.183863318714, Final residual = 1.07504361768e-16, No Iterations 2
DILUPBiCG:  Solving for tauzz, Initial residual = 0, Final residual = 0, No Iterations 0
DICPCG:  Solving for psi, Initial residual = 1.18617925016e-11, Final residual = 1.18617925016e-11, No Iterations 0
ExecutionTime = 0.58 s  ClockTime = 0 s

Courant Number mean: 0.00183544201814 max: 0.00751484803969
deltaT = 0.000909752518327
Time = 0.004548921868

Inner iteration:  0

DICPCG:  Solving for Ux, Initial residual = 0.00103401055518, Final residual = 2.96824287845e-11, No Iterations 4
DICPCG:  Solving for Uy, Initial residual = 0.00488819959771, Final residual = 1.28908237328e-11, No Iterations 5
DICPCG:  Solving for p, Initial residual = 5.08678873321e-06, Final residual = 3.88310168155e-11, No Iterations 32
time step continuity errors : sum local = 5.42870302427e-13, global = 8.84897685531e-15, cumulative = 2.199112129e-14
DILUPBiCG:  Solving for tauxx, Initial residual = 0.0519873639566, Final residual = 9.28912547767e-11, No Iterations 1
DILUPBiCG:  Solving for tauxy, Initial residual = 0.0582348122378, Final residual = 1.34441069528e-17, No Iterations 2
DILUPBiCG:  Solving for tauyy, Initial residual = 0.194641113626, Final residual = 7.09077671944e-16, No Iterations 2
DILUPBiCG:  Solving for tauzz, Initial residual = 0, Final residual = 0, No Iterations 0
DICPCG:  Solving for psi, Initial residual = 1.18617925016e-11, Final residual = 1.18617925016e-11, No Iterations 0
ExecutionTime = 0.59 s  ClockTime = 0 s

Courant Number mean: 0.00237054464869 max: 0.0094804067677
deltaT = 0.00109170302199
Time = 0.005458674387

Inner iteration:  0

DICPCG:  Solving for Ux, Initial residual = 0.000909201744122, Final residual = 3.89057893632e-11, No Iterations 4
DICPCG:  Solving for Uy, Initial residual = 0.00477569106168, Final residual = 1.54458200953e-11, No Iterations 5
DICPCG:  Solving for p, Initial residual = 5.49694716946e-06, Final residual = 5.46463990838e-11, No Iterations 32
time step continuity errors : sum local = 7.83056834663e-13, global = -6.52935601167e-15, cumulative = 1.54617652784e-14
DILUPBiCG:  Solving for tauxx, Initial residual = 0.0511386169187, Final residual = 1.88610741198e-17, No Iterations 2
DILUPBiCG:  Solving for tauxy, Initial residual = 0.0574269070148, Final residual = 7.48712005523e-17, No Iterations 2
DILUPBiCG:  Solving for tauyy, Initial residual = 0.20077450105, Final residual = 4.40577961511e-15, No Iterations 2
DILUPBiCG:  Solving for tauzz, Initial residual = 0, Final residual = 0, No Iterations 0
DICPCG:  Solving for psi, Initial residual = 1.18617925016e-11, Final residual = 1.18617925016e-11, No Iterations 0
ExecutionTime = 0.6 s  ClockTime = 0 s

Courant Number mean: 0.00304374820398 max: 0.0119093361717
deltaT = 0.00130992907203
Time = 0.006550377409

Inner iteration:  0

DICPCG:  Solving for Ux, Initial residual = 0.000793421486758, Final residual = 5.15051457472e-11, No Iterations 4
DICPCG:  Solving for Uy, Initial residual = 0.00464383745398, Final residual = 1.73383458765e-11, No Iterations 5
DICPCG:  Solving for p, Initial residual = 6.27575788199e-06, Final residual = 7.65759977679e-11, No Iterations 32
time step continuity errors : sum local = 1.1692483494e-12, global = 3.27157600664e-14, cumulative = 4.81775253448e-14
DILUPBiCG:  Solving for tauxx, Initial residual = 0.050075761672, Final residual = 1.02254532239e-16, No Iterations 2
DILUPBiCG:  Solving for tauxy, Initial residual = 0.056457341847, Final residual = 4.11876760468e-16, No Iterations 2
DILUPBiCG:  Solving for tauyy, Initial residual = 0.202587858242, Final residual = 2.57037343674e-14, No Iterations 2
DILUPBiCG:  Solving for tauzz, Initial residual = 0, Final residual = 0, No Iterations 0
DICPCG:  Solving for psi, Initial residual = 1.18617925016e-11, Final residual = 1.18617925016e-11, No Iterations 0
ExecutionTime = 0.61 s  ClockTime = 0 s

Courant Number mean: 0.00388364556344 max: 0.0148904496298
deltaT = 0.0015718323972
Time = 0.007860306481

Inner iteration:  0

DICPCG:  Solving for Ux, Initial residual = 0.000700852228153, Final residual = 7.08355560821e-11, No Iterations 4
DICPCG:  Solving for Uy, Initial residual = 0.00449782166017, Final residual = 1.47137787309e-11, No Iterations 5
DICPCG:  Solving for p, Initial residual = 7.44708354405e-06, Final residual = 6.80648356503e-12, No Iterations 33
time step continuity errors : sum local = 1.53782944586e-12, global = -1.32581506709e-14, cumulative = 3.49193746739e-14
DILUPBiCG:  Solving for tauxx, Initial residual = 0.0487015526081, Final residual = 5.42725915996e-16, No Iterations 2
DILUPBiCG:  Solving for tauxy, Initial residual = 0.0552833322424, Final residual = 2.21421178648e-15, No Iterations 2
DILUPBiCG:  Solving for tauyy, Initial residual = 0.201894442847, Final residual = 1.41436017609e-13, No Iterations 2
DILUPBiCG:  Solving for tauzz, Initial residual = 0, Final residual = 0, No Iterations 0
DICPCG:  Solving for psi, Initial residual = 1.18617925016e-11, Final residual = 1.18617925016e-11, No Iterations 0
ExecutionTime = 0.62 s  ClockTime = 0 s

Courant Number mean: 0.00492316512823 max: 0.0185271441113
deltaT = 0.00188608006845
Time = 0.009432138878

Inner iteration:  0

DICPCG:  Solving for Ux, Initial residual = 0.000640578452564, Final residual = 1.57297621107e-12, No Iterations 5
DICPCG:  Solving for Uy, Initial residual = 0.00434156129214, Final residual = 1.54489973653e-11, No Iterations 5
DICPCG:  Solving for p, Initial residual = 9.0667172475e-06, Final residual = 9.11538986797e-12, No Iterations 33
time step continuity errors : sum local = 2.16653401439e-12, global = -9.02016007302e-16, cumulative = 3.40173586666e-14
DILUPBiCG:  Solving for tauxx, Initial residual = 0.0468533653037, Final residual = 2.78502786149e-15, No Iterations 2
DILUPBiCG:  Solving for tauxy, Initial residual = 0.0538189210704, Final residual = 1.15553749497e-14, No Iterations 2
DILUPBiCG:  Solving for tauyy, Initial residual = 0.199860390774, Final residual = 7.33210818097e-13, No Iterations 2
DILUPBiCG:  Solving for tauzz, Initial residual = 0, Final residual = 0, No Iterations 0
DICPCG:  Solving for psi, Initial residual = 1.18617925016e-11, Final residual = 1.18617925016e-11, No Iterations 0
ExecutionTime = 0.63 s  ClockTime = 0 s

Courant Number mean: 0.00619695652448 max: 0.0229322357498
deltaT = 0.00226244071703
Time = 0.01131821895

Inner iteration:  0

DICPCG:  Solving for Ux, Initial residual = 0.000615017645525, Final residual = 2.31762631093e-12, No Iterations 5
DICPCG:  Solving for Uy, Initial residual = 0.00416991133505, Final residual = 2.56012394908e-11, No Iterations 5
DICPCG:  Solving for p, Initial residual = 1.12268036465e-05, Final residual = 1.17620610798e-11, No Iterations 33
time step continuity errors : sum local = 3.24065061423e-12, global = -2.6286078814e-14, cumulative = 7.73127985256e-15
DILUPBiCG:  Solving for tauxx, Initial residual = 0.044312814322, Final residual = 1.36854065621e-14, No Iterations 2
DILUPBiCG:  Solving for tauxy, Initial residual = 0.051968774868, Final residual = 5.82891845643e-14, No Iterations 2
DILUPBiCG:  Solving for tauyy, Initial residual = 0.196583653074, Final residual = 3.5567973042e-12, No Iterations 2
DILUPBiCG:  Solving for tauzz, Initial residual = 0, Final residual = 0, No Iterations 0
DICPCG:  Solving for psi, Initial residual = 1.18617925016e-11, Final residual = 1.18617925016e-11, No Iterations 0
ExecutionTime = 0.64 s  ClockTime = 0 s

Courant Number mean: 0.00773910890538 max: 0.0282229320668
deltaT = 0.0026622633958
Time = 0.01358065966

Inner iteration:  0

DICPCG:  Solving for Ux, Initial residual = 0.000611564401513, Final residual = 2.56737742716e-12, No Iterations 5
DICPCG:  Solving for Uy, Initial residual = 0.00398166518507, Final residual = 4.67828709477e-11, No Iterations 5
DICPCG:  Solving for p, Initial residual = 1.42993064711e-05, Final residual = 1.44354931735e-11, No Iterations 33
time step continuity errors : sum local = 4.49118762729e-12, global = -5.68839939917e-14, cumulative = -4.91527141391e-14
DILUPBiCG:  Solving for tauxx, Initial residual = 0.0401464335911, Final residual = 5.85062691839e-14, No Iterations 2
DILUPBiCG:  Solving for tauxy, Initial residual = 0.0488048341023, Final residual = 2.59524223039e-13, No Iterations 2
DILUPBiCG:  Solving for tauyy, Initial residual = 0.189034698965, Final residual = 1.4648538188e-11, No Iterations 2
DILUPBiCG:  Solving for tauzz, Initial residual = 0, Final residual = 0, No Iterations 0
DICPCG:  Solving for psi, Initial residual = 1.18617925016e-11, Final residual = 1.18617925016e-11, No Iterations 0
ExecutionTime = 0.65 s  ClockTime = 0 s

Courant Number mean: 0.00940491358521 max: 0.0338882459135
deltaT = 0.00305377271871
Time = 0.01624292306

Inner iteration:  0

DICPCG:  Solving for Ux, Initial residual = 0.000596109935858, Final residual = 8.77574254536e-11, No Iterations 4
DICPCG:  Solving for Uy, Initial residual = 0.00374944390891, Final residual = 7.09713295025e-11, No Iterations 5
DICPCG:  Solving for p, Initial residual = 1.85373898928e-05, Final residual = 1.50303506163e-11, No Iterations 33
time step continuity errors : sum local = 5.835755064e-12, global = -1.69745745588e-14, cumulative = -6.61272886979e-14
DILUPBiCG:  Solving for tauxx, Initial residual = 0.0344992641506, Final residual = 2.10107856924e-13, No Iterations 2
DILUPBiCG:  Solving for tauxy, Initial residual = 0.0445095498931, Final residual = 9.80221740854e-13, No Iterations 2
DILUPBiCG:  Solving for tauyy, Initial residual = 0.177184638335, Final residual = 4.91411786236e-11, No Iterations 2
DILUPBiCG:  Solving for tauzz, Initial residual = 0, Final residual = 0, No Iterations 0
DICPCG:  Solving for psi, Initial residual = 1.18617925016e-11, Final residual = 1.18617925016e-11, No Iterations 0
ExecutionTime = 0.66 s  ClockTime = 0 s

Courant Number mean: 0.0110496228541 max: 0.0394616408729
deltaT = 0.00343971222667
Time = 0.01929669578

Inner iteration:  0

DICPCG:  Solving for Ux, Initial residual = 0.000554900031707, Final residual = 9.4147315202e-11, No Iterations 4
DICPCG:  Solving for Uy, Initial residual = 0.0034761029671, Final residual = 9.40339180314e-11, No Iterations 5
DICPCG:  Solving for p, Initial residual = 2.40983114116e-05, Final residual = 6.72362279232e-12, No Iterations 33
time step continuity errors : sum local = 7.68362738395e-12, global = -1.4538355573e-14, cumulative = -8.06656442709e-14
DILUPBiCG:  Solving for tauxx, Initial residual = 0.0283966043956, Final residual = 6.5385849417e-13, No Iterations 2
DILUPBiCG:  Solving for tauxy, Initial residual = 0.0403397895263, Final residual = 3.14280738628e-12, No Iterations 2
DILUPBiCG:  Solving for tauyy, Initial residual = 0.163201478138, Final residual = 8.51243476462e-16, No Iterations 3
DILUPBiCG:  Solving for tauzz, Initial residual = 0, Final residual = 0, No Iterations 0
DICPCG:  Solving for psi, Initial residual = 1.18617925016e-11, Final residual = 1.18617925016e-11, No Iterations 0
ExecutionTime = 0.66 s  ClockTime = 0 s

Courant Number mean: 0.0126472953989 max: 0.0449307112477
deltaT = 0.00381984926477
Time = 0.022736408

Inner iteration:  0

DICPCG:  Solving for Ux, Initial residual = 0.000552101634658, Final residual = 5.68669055837e-12, No Iterations 5
DICPCG:  Solving for Uy, Initial residual = 0.00320286444646, Final residual = 4.3517683771e-12, No Iterations 6
DICPCG:  Solving for p, Initial residual = 3.09163772684e-05, Final residual = 2.73160944686e-11, No Iterations 33
time step continuity errors : sum local = 9.58045006091e-12, global = 3.67074686236e-14, cumulative = -4.39581756473e-14
DILUPBiCG:  Solving for tauxx, Initial residual = 0.0227029497996, Final residual = 1.79930505049e-12, No Iterations 2
DILUPBiCG:  Solving for tauxy, Initial residual = 0.0378974639834, Final residual = 8.43679292819e-12, No Iterations 2
DILUPBiCG:  Solving for tauyy, Initial residual = 0.14837368493, Final residual = 3.55933568451e-15, No Iterations 3
DILUPBiCG:  Solving for tauzz, Initial residual = 0, Final residual = 0, No Iterations 0
DICPCG:  Solving for psi, Initial residual = 1.18617925016e-11, Final residual = 1.18617925016e-11, No Iterations 0
ExecutionTime = 0.67 s  ClockTime = 0 s

Courant Number mean: 0.0141700367444 max: 0.0502600569203
deltaT = 0.00379942226335
Time = 0.02655625727

Inner iteration:  0

DICPCG:  Solving for Ux, Initial residual = 0.000641334006586, Final residual = 5.57659955803e-12, No Iterations 5
DICPCG:  Solving for Uy, Initial residual = 0.00297816673591, Final residual = 4.65917863428e-12, No Iterations 6
DICPCG:  Solving for p, Initial residual = 4.25157292095e-05, Final residual = 3.47974578586e-11, No Iterations 33
time step continuity errors : sum local = 9.52489501065e-12, global = 1.25543624173e-13, cumulative = 8.15854485253e-14
DILUPBiCG:  Solving for tauxx, Initial residual = 0.0163843728509, Final residual = 2.80963082634e-12, No Iterations 2
DILUPBiCG:  Solving for tauxy, Initial residual = 0.0332641981841, Final residual = 1.19769397912e-11, No Iterations 2
DILUPBiCG:  Solving for tauyy, Initial residual = 0.12316480706, Final residual = 6.25882371321e-15, No Iterations 3
DILUPBiCG:  Solving for tauzz, Initial residual = 0, Final residual = 0, No Iterations 0
DICPCG:  Solving for psi, Initial residual = 1.18617925016e-11, Final residual = 1.18617925016e-11, No Iterations 0
ExecutionTime = 0.68 s  ClockTime = 0 s

Courant Number mean: 0.0141335858099 max: 0.0502281405053
deltaT = 0.00378207330325
Time = 0.03035567953

Inner iteration:  0

DICPCG:  Solving for Ux, Initial residual = 0.000749389050538, Final residual = 4.10714175039e-12, No Iterations 5
DICPCG:  Solving for Uy, Initial residual = 0.00273483950046, Final residual = 4.46666765716e-12, No Iterations 6
DICPCG:  Solving for p, Initial residual = 5.36189892326e-05, Final residual = 3.8851692118e-11, No Iterations 33
time step continuity errors : sum local = 9.38483319108e-12, global = -8.88751246813e-14, cumulative = -7.28967615596e-15
DILUPBiCG:  Solving for tauxx, Initial residual = 0.0127400800001, Final residual = 4.13400295769e-12, No Iterations 2
DILUPBiCG:  Solving for tauxy, Initial residual = 0.0298006524268, Final residual = 1.52640629215e-11, No Iterations 2
DILUPBiCG:  Solving for tauyy, Initial residual = 0.10571896746, Final residual = 9.72490751162e-15, No Iterations 3
DILUPBiCG:  Solving for tauzz, Initial residual = 0, Final residual = 0, No Iterations 0
DICPCG:  Solving for psi, Initial residual = 1.18617925016e-11, Final residual = 1.18617925016e-11, No Iterations 0
ExecutionTime = 0.69 s  ClockTime = 0 s

Courant Number mean: 0.0140552919514 max: 0.0501381391348
deltaT = 0.00377058636839
Time = 0.03413775284

Inner iteration:  0

DICPCG:  Solving for Ux, Initial residual = 0.000819031243535, Final residual = 4.11709470955e-12, No Iterations 5
DICPCG:  Solving for Uy, Initial residual = 0.00253487311379, Final residual = 4.15602190205e-12, No Iterations 6
DICPCG:  Solving for p, Initial residual = 6.33432131325e-05, Final residual = 4.07688053184e-11, No Iterations 33
time step continuity errors : sum local = 9.28123688478e-12, global = 1.24258040711e-13, cumulative = 1.16968364555e-13
DILUPBiCG:  Solving for tauxx, Initial residual = 0.0106880975603, Final residual = 5.69655018109e-12, No Iterations 2
DILUPBiCG:  Solving for tauxy, Initial residual = 0.0267844421883, Final residual = 1.76492322395e-11, No Iterations 2
DILUPBiCG:  Solving for tauyy, Initial residual = 0.0925733495046, Final residual = 1.35670501558e-14, No Iterations 3
DILUPBiCG:  Solving for tauzz, Initial residual = 0, Final residual = 0, No Iterations 0
DICPCG:  Solving for psi, Initial residual = 1.18617925016e-11, Final residual = 1.18617925016e-11, No Iterations 0
ExecutionTime = 0.7 s  ClockTime = 0 s

Courant Number mean: 0.0139757009716 max: 0.0500432506138
deltaT = 0.00376486468953
Time = 0.0379083392

Inner iteration:  0

DICPCG:  Solving for Ux, Initial residual = 0.000852587389569, Final residual = 5.75927379289e-12, No Iterations 5
DICPCG:  Solving for Uy, Initial residual = 0.00238530194858, Final residual = 3.84652748463e-12, No Iterations 6
DICPCG:  Solving for p, Initial residual = 7.07728219824e-05, Final residual = 4.12163132577e-11, No Iterations 33
time step continuity errors : sum local = 9.6365007213e-12, global = -1.5609604318e-13, cumulative = -3.91276786256e-14
DILUPBiCG:  Solving for tauxx, Initial residual = 0.00931828831425, Final residual = 7.25144039817e-12, No Iterations 2
DILUPBiCG:  Solving for tauxy, Initial residual = 0.0239312945927, Final residual = 1.85291586829e-11, No Iterations 2
DILUPBiCG:  Solving for tauyy, Initial residual = 0.0821207024814, Final residual = 1.73010398097e-14, No Iterations 3
DILUPBiCG:  Solving for tauzz, Initial residual = 0, Final residual = 0, No Iterations 0
DICPCG:  Solving for psi, Initial residual = 1.18617925016e-11, Final residual = 1.18617925016e-11, No Iterations 0
ExecutionTime = 0.72 s  ClockTime = 0 s

Courant Number mean: 0.0139259389821 max: 0.0499466615406
deltaT = 0.00376772552896
Time = 0.04167320389

Inner iteration:  0

DICPCG:  Solving for Ux, Initial residual = 0.000861917003321, Final residual = 7.58345867598e-12, No Iterations 5
DICPCG:  Solving for Uy, Initial residual = 0.00227615419973, Final residual = 9.39168713442e-11, No Iterations 5
DICPCG:  Solving for p, Initial residual = 7.5258767031e-05, Final residual = 4.06455604533e-11, No Iterations 33
time step continuity errors : sum local = 9.42134372363e-12, global = -1.22495406161e-13, cumulative = -1.61623084787e-13
DILUPBiCG:  Solving for tauxx, Initial residual = 0.00827199512092, Final residual = 8.46265529132e-12, No Iterations 2
DILUPBiCG:  Solving for tauxy, Initial residual = 0.0212153400008, Final residual = 1.77405002566e-11, No Iterations 2
DILUPBiCG:  Solving for tauyy, Initial residual = 0.0733272062263, Final residual = 2.05939567874e-14, No Iterations 3
DILUPBiCG:  Solving for tauzz, Initial residual = 0, Final residual = 0, No Iterations 0
DICPCG:  Solving for psi, Initial residual = 1.18617925016e-11, Final residual = 1.18617925016e-11, No Iterations 0
ExecutionTime = 0.72 s  ClockTime = 0 s

Courant Number mean: 0.0139485753098 max: 0.0498820242378
deltaT = 0.00377634075501
Time = 0.04544092942

Inner iteration:  0

DICPCG:  Solving for Ux, Initial residual = 0.00085490954478, Final residual = 9.11047254625e-12, No Iterations 5
DICPCG:  Solving for Uy, Initial residual = 0.00220052968503, Final residual = 8.48185206763e-11, No Iterations 5
DICPCG:  Solving for p, Initial residual = 7.6508435206e-05, Final residual = 3.9370073355e-11, No Iterations 33
time step continuity errors : sum local = 9.64456047481e-12, global = 1.42841206953e-13, cumulative = -1.87818778338e-14
DILUPBiCG:  Solving for tauxx, Initial residual = 0.00739242104426, Final residual = 8.94761835174e-12, No Iterations 2
DILUPBiCG:  Solving for tauxy, Initial residual = 0.0186968402693, Final residual = 1.54995238641e-11, No Iterations 2
DILUPBiCG:  Solving for tauyy, Initial residual = 0.0656061846428, Final residual = 2.30458139822e-14, No Iterations 3
DILUPBiCG:  Solving for tauzz, Initial residual = 0, Final residual = 0, No Iterations 0
DICPCG:  Solving for psi, Initial residual = 1.18617925016e-11, Final residual = 1.18617925016e-11, No Iterations 0
ExecutionTime = 0.73 s  ClockTime = 0 s

Courant Number mean: 0.014068924977 max: 0.0497986746285
deltaT = 0.00379079841487
Time = 0.04921727018

Inner iteration:  0

DICPCG:  Solving for Ux, Initial residual = 0.000836739868761, Final residual = 1.02866727595e-11, No Iterations 5
DICPCG:  Solving for Uy, Initial residual = 0.00216335840553, Final residual = 7.57057649952e-11, No Iterations 5
DICPCG:  Solving for p, Initial residual = 7.45609804159e-05, Final residual = 3.75450479894e-11, No Iterations 33
time step continuity errors : sum local = 9.50929832665e-12, global = -1.43365734061e-13, cumulative = -1.62147611895e-13
DILUPBiCG:  Solving for tauxx, Initial residual = 0.00662276094679, Final residual = 8.52475059135e-12, No Iterations 2
[...]
time step continuity errors : sum local = 2.14567438586e-11, global = 2.14556493287e-12, cumulative = -2.12551084947e-09
DILUPBiCG:  Solving for tauxx, Initial residual = 7.59610305348e-08, Final residual = 4.7087486942e-16, No Iterations 1
DILUPBiCG:  Solving for tauxy, Initial residual = 1.54948888028e-07, Final residual = 1.76790032909e-14, No Iterations 1
DILUPBiCG:  Solving for tauyy, Initial residual = 0.000203498528817, Final residual = 2.78214386362e-12, No Iterations 1
DILUPBiCG:  Solving for tauzz, Initial residual = 0, Final residual = 0, No Iterations 0
DICPCG:  Solving for psi, Initial residual = 1.18617925016e-11, Final residual = 1.18617925016e-11, No Iterations 0
ExecutionTime = 23.53 s  ClockTime = 24 s

Courant Number mean: 0.0355997560098 max: 0.0499295107525
deltaT = 0.00818239137911
Time = 24.87726413

Inner iteration:  0

DICPCG:  Solving for Ux, Initial residual = 2.38599392645e-07, Final residual = 1.18724815133e-11, No Iterations 2
DICPCG:  Solving for Uy, Initial residual = 6.92501456126e-05, Final residual = 2.00445729956e-11, No Iterations 2
DICPCG:  Solving for p, Initial residual = 4.17742832626e-07, Final residual = 5.7074293994e-11, No Iterations 4
time step continuity errors : sum local = 2.25122727008e-11, global = 1.86076627407e-12, cumulative = -2.12365008319e-09
DILUPBiCG:  Solving for tauxx, Initial residual = 7.57588172721e-08, Final residual = 4.51519916243e-16, No Iterations 1
DILUPBiCG:  Solving for tauxy, Initial residual = 1.54537401557e-07, Final residual = 1.6864396987e-14, No Iterations 1
DILUPBiCG:  Solving for tauyy, Initial residual = 0.000203299560446, Final residual = 2.77773759919e-12, No Iterations 1
DILUPBiCG:  Solving for tauzz, Initial residual = 0, Final residual = 0, No Iterations 0
DICPCG:  Solving for psi, Initial residual = 1.18617925016e-11, Final residual = 1.18617925016e-11, No Iterations 0
ExecutionTime = 23.54 s  ClockTime = 24 s

Courant Number mean: 0.0355997769849 max: 0.0499295218338
deltaT = 0.00818239137911
Time = 24.88544652

Inner iteration:  0

DICPCG:  Solving for Ux, Initial residual = 2.38462707145e-07, Final residual = 1.18533657268e-11, No Iterations 2
DICPCG:  Solving for Uy, Initial residual = 6.92366466733e-05, Final residual = 1.99255966299e-11, No Iterations 2
DICPCG:  Solving for p, Initial residual = 4.17760488929e-07, Final residual = 4.73624717485e-11, No Iterations 4
time step continuity errors : sum local = 2.15865489718e-11, global = 2.09033003217e-12, cumulative = -2.12155975316e-09
DILUPBiCG:  Solving for tauxx, Initial residual = 7.5557086828e-08, Final residual = 4.56160454037e-16, No Iterations 1
DILUPBiCG:  Solving for tauxy, Initial residual = 1.54126572724e-07, Final residual = 1.70978754931e-14, No Iterations 1
DILUPBiCG:  Solving for tauyy, Initial residual = 0.000203188282761, Final residual = 2.78353341766e-12, No Iterations 1
DILUPBiCG:  Solving for tauzz, Initial residual = 0, Final residual = 0, No Iterations 0
DICPCG:  Solving for psi, Initial residual = 1.18617925016e-11, Final residual = 1.18617925016e-11, No Iterations 0
ExecutionTime = 23.56 s  ClockTime = 24 s

Courant Number mean: 0.0355997979528 max: 0.0499295352093
deltaT = 0.00818239137911
Time = 24.89362891

Inner iteration:  0

DICPCG:  Solving for Ux, Initial residual = 2.38326030998e-07, Final residual = 1.18342666634e-11, No Iterations 2
DICPCG:  Solving for Uy, Initial residual = 6.92226422024e-05, Final residual = 1.98655849492e-11, No Iterations 2
DICPCG:  Solving for p, Initial residual = 4.17777443966e-07, Final residual = 4.53762505104e-11, No Iterations 4
time step continuity errors : sum local = 2.15287870942e-11, global = 2.11386029192e-12, cumulative = -2.11944589287e-09
DILUPBiCG:  Solving for tauxx, Initial residual = 7.53557958475e-08, Final residual = 4.22637825957e-16, No Iterations 1
DILUPBiCG:  Solving for tauxy, Initial residual = 1.53717582272e-07, Final residual = 1.83518941432e-14, No Iterations 1
DILUPBiCG:  Solving for tauyy, Initial residual = 0.000203107340873, Final residual = 2.78394800801e-12, No Iterations 1
DILUPBiCG:  Solving for tauzz, Initial residual = 0, Final residual = 0, No Iterations 0
DICPCG:  Solving for psi, Initial residual = 1.18617925016e-11, Final residual = 1.18617925016e-11, No Iterations 0
ExecutionTime = 23.56 s  ClockTime = 24 s

Courant Number mean: 0.0355998188467 max: 0.0499295471281
deltaT = 0.00818239137911
Time = 24.9018113

Inner iteration:  0

DICPCG:  Solving for Ux, Initial residual = 2.38189696608e-07, Final residual = 1.18151840109e-11, No Iterations 2
DICPCG:  Solving for Uy, Initial residual = 6.92069740943e-05, Final residual = 1.98613533147e-11, No Iterations 2
DICPCG:  Solving for p, Initial residual = 4.17793040819e-07, Final residual = 4.63751707072e-11, No Iterations 4
time step continuity errors : sum local = 2.1999556241e-11, global = 2.17734651422e-12, cumulative = -2.11726854635e-09
DILUPBiCG:  Solving for tauxx, Initial residual = 7.51552934368e-08, Final residual = 4.23052868416e-16, No Iterations 1
DILUPBiCG:  Solving for tauxy, Initial residual = 1.53309158284e-07, Final residual = 1.80366006191e-14, No Iterations 1
DILUPBiCG:  Solving for tauyy, Initial residual = 0.00020300119818, Final residual = 2.78381042093e-12, No Iterations 1
DILUPBiCG:  Solving for tauzz, Initial residual = 0, Final residual = 0, No Iterations 0
DICPCG:  Solving for psi, Initial residual = 1.18617925016e-11, Final residual = 1.18617925016e-11, No Iterations 0
ExecutionTime = 23.57 s  ClockTime = 24 s

Courant Number mean: 0.0355998396498 max: 0.0499295602476
deltaT = 0.00818239137911
Time = 24.90999369

Inner iteration:  0

DICPCG:  Solving for Ux, Initial residual = 2.38053548167e-07, Final residual = 1.17961081837e-11, No Iterations 2
DICPCG:  Solving for Uy, Initial residual = 6.91931514136e-05, Final residual = 1.98398739924e-11, No Iterations 2
DICPCG:  Solving for p, Initial residual = 4.17811811347e-07, Final residual = 5.37832599339e-11, No Iterations 4
time step continuity errors : sum local = 2.2205261418e-11, global = 2.13710760754e-12, cumulative = -2.11513143875e-09
DILUPBiCG:  Solving for tauxx, Initial residual = 7.49555172049e-08, Final residual = 3.87482122993e-16, No Iterations 1
DILUPBiCG:  Solving for tauxy, Initial residual = 1.52902002691e-07, Final residual = 1.98541229878e-14, No Iterations 1
DILUPBiCG:  Solving for tauyy, Initial residual = 0.000202889276263, Final residual = 2.78607044721e-12, No Iterations 1
DILUPBiCG:  Solving for tauzz, Initial residual = 0, Final residual = 0, No Iterations 0
DICPCG:  Solving for psi, Initial residual = 1.18617925016e-11, Final residual = 1.18617925016e-11, No Iterations 0
ExecutionTime = 23.57 s  ClockTime = 24 s

Courant Number mean: 0.0355998604235 max: 0.0499295718311
deltaT = 0.00818239137911
Time = 24.91817609

Inner iteration:  0

DICPCG:  Solving for Ux, Initial residual = 2.37917596254e-07, Final residual = 1.17770436499e-11, No Iterations 2
DICPCG:  Solving for Uy, Initial residual = 6.91786959874e-05, Final residual = 1.98235814181e-11, No Iterations 2
DICPCG:  Solving for p, Initial residual = 4.17827201536e-07, Final residual = 3.88481905368e-11, No Iterations 4
time step continuity errors : sum local = 2.08058301534e-11, global = 2.30373238574e-12, cumulative = -2.11282770636e-09
DILUPBiCG:  Solving for tauxx, Initial residual = 7.47561375595e-08, Final residual = 3.81058896778e-16, No Iterations 1
DILUPBiCG:  Solving for tauxy, Initial residual = 1.52495957638e-07, Final residual = 1.80996652782e-14, No Iterations 1
DILUPBiCG:  Solving for tauyy, Initial residual = 0.000202830890862, Final residual = 2.78999175588e-12, No Iterations 1
DILUPBiCG:  Solving for tauzz, Initial residual = 0, Final residual = 0, No Iterations 0
DICPCG:  Solving for psi, Initial residual = 1.18617925016e-11, Final residual = 1.18617925016e-11, No Iterations 0
ExecutionTime = 23.58 s  ClockTime = 24 s

Courant Number mean: 0.0355998811241 max: 0.0499295837523
deltaT = 0.00818239137911
Time = 24.92635848

Inner iteration:  0

DICPCG:  Solving for Ux, Initial residual = 2.3778182862e-07, Final residual = 1.17579801675e-11, No Iterations 2
DICPCG:  Solving for Uy, Initial residual = 6.91646375537e-05, Final residual = 1.99660099394e-11, No Iterations 2
DICPCG:  Solving for p, Initial residual = 4.17848531598e-07, Final residual = 5.42058184383e-11, No Iterations 4
time step continuity errors : sum local = 2.23564144697e-11, global = 2.02275025322e-12, cumulative = -2.11080495611e-09
DILUPBiCG:  Solving for tauxx, Initial residual = 7.45571595493e-08, Final residual = 3.49478950119e-16, No Iterations 1
DILUPBiCG:  Solving for tauxy, Initial residual = 1.52090361556e-07, Final residual = 1.62821716236e-14, No Iterations 1
DILUPBiCG:  Solving for tauyy, Initial residual = 0.00020284665975, Final residual = 2.78977626283e-12, No Iterations 1
DILUPBiCG:  Solving for tauzz, Initial residual = 0, Final residual = 0, No Iterations 0
DICPCG:  Solving for psi, Initial residual = 1.18617925016e-11, Final residual = 1.18617925016e-11, No Iterations 0
ExecutionTime = 23.58 s  ClockTime = 24 s

Courant Number mean: 0.035599901803 max: 0.0499295959203
deltaT = 0.00818239137911
Time = 24.93454087

Inner iteration:  0

DICPCG:  Solving for Ux, Initial residual = 2.37646161444e-07, Final residual = 1.1738900254e-11, No Iterations 2
DICPCG:  Solving for Uy, Initial residual = 6.91502616326e-05, Final residual = 1.96886206483e-11, No Iterations 2
DICPCG:  Solving for p, Initial residual = 4.1786060811e-07, Final residual = 5.15956325928e-11, No Iterations 4
time step continuity errors : sum local = 2.24577512405e-11, global = 1.95367406907e-12, cumulative = -2.10885128204e-09
DILUPBiCG:  Solving for tauxx, Initial residual = 7.43584870664e-08, Final residual = 3.46998993297e-16, No Iterations 1
DILUPBiCG:  Solving for tauxy, Initial residual = 1.51685842891e-07, Final residual = 1.40304668726e-14, No Iterations 1
DILUPBiCG:  Solving for tauyy, Initial residual = 0.000202770322484, Final residual = 2.78915513704e-12, No Iterations 1
DILUPBiCG:  Solving for tauzz, Initial residual = 0, Final residual = 0, No Iterations 0
DICPCG:  Solving for psi, Initial residual = 1.18617925016e-11, Final residual = 1.18617925016e-11, No Iterations 0
ExecutionTime = 23.59 s  ClockTime = 24 s

Courant Number mean: 0.0355999223694 max: 0.0499296078887
deltaT = 0.00818239137911
Time = 24.94272326

Inner iteration:  0

DICPCG:  Solving for Ux, Initial residual = 2.37510935706e-07, Final residual = 1.17198449927e-11, No Iterations 2
DICPCG:  Solving for Uy, Initial residual = 6.91358092463e-05, Final residual = 1.97679680515e-11, No Iterations 2
DICPCG:  Solving for p, Initial residual = 4.17878433956e-07, Final residual = 3.59795448977e-11, No Iterations 4
time step continuity errors : sum local = 2.07367960858e-11, global = 2.23623174314e-12, cumulative = -2.1066150503e-09
DILUPBiCG:  Solving for tauxx, Initial residual = 7.41599758952e-08, Final residual = 3.58541310361e-16, No Iterations 1
DILUPBiCG:  Solving for tauxy, Initial residual = 1.51282977488e-07, Final residual = 1.32069656209e-14, No Iterations 1
DILUPBiCG:  Solving for tauyy, Initial residual = 0.000202432276344, Final residual = 2.79395855388e-12, No Iterations 1
DILUPBiCG:  Solving for tauzz, Initial residual = 0, Final residual = 0, No Iterations 0
DICPCG:  Solving for psi, Initial residual = 1.18617925016e-11, Final residual = 1.18617925016e-11, No Iterations 0
ExecutionTime = 23.6 s  ClockTime = 24 s

Courant Number mean: 0.0355999429477 max: 0.0499296205304
deltaT = 0.00818239137911
Time = 24.95090565

Inner iteration:  0

DICPCG:  Solving for Ux, Initial residual = 2.37375818461e-07, Final residual = 1.1700805462e-11, No Iterations 2
DICPCG:  Solving for Uy, Initial residual = 6.91218680962e-05, Final residual = 1.98814736483e-11, No Iterations 2
DICPCG:  Solving for p, Initial residual = 4.17899083867e-07, Final residual = 6.21271489875e-11, No Iterations 4
time step continuity errors : sum local = 2.35360318471e-11, global = 1.94086623564e-12, cumulative = -2.10467418406e-09
DILUPBiCG:  Solving for tauxx, Initial residual = 7.39623195697e-08, Final residual = 3.37509228086e-16, No Iterations 1
DILUPBiCG:  Solving for tauxy, Initial residual = 1.50880323049e-07, Final residual = 1.4497805729e-14, No Iterations 1
DILUPBiCG:  Solving for tauyy, Initial residual = 0.000202493383079, Final residual = 2.79047740827e-12, No Iterations 1
DILUPBiCG:  Solving for tauzz, Initial residual = 0, Final residual = 0, No Iterations 0
DICPCG:  Solving for psi, Initial residual = 1.18617925016e-11, Final residual = 1.18617925016e-11, No Iterations 0
ExecutionTime = 23.6 s  ClockTime = 24 s

Courant Number mean: 0.0355999634216 max: 0.0499296314558
deltaT = 0.00818239137911
Time = 24.95908804

Inner iteration:  0

DICPCG:  Solving for Ux, Initial residual = 2.37240931498e-07, Final residual = 1.16817688682e-11, No Iterations 2
DICPCG:  Solving for Uy, Initial residual = 6.91068505802e-05, Final residual = 1.9552085686e-11, No Iterations 2
DICPCG:  Solving for p, Initial residual = 4.1791411725e-07, Final residual = 4.98437570564e-11, No Iterations 4
time step continuity errors : sum local = 2.11969216451e-11, global = 2.0437527312e-12, cumulative = -2.10263043133e-09
DILUPBiCG:  Solving for tauxx, Initial residual = 7.37650966086e-08, Final residual = 3.26657302852e-16, No Iterations 1
DILUPBiCG:  Solving for tauxy, Initial residual = 1.50479474035e-07, Final residual = 1.37250701297e-14, No Iterations 1
DILUPBiCG:  Solving for tauyy, Initial residual = 0.000202192887296, Final residual = 2.79370141116e-12, No Iterations 1
DILUPBiCG:  Solving for tauzz, Initial residual = 0, Final residual = 0, No Iterations 0
DICPCG:  Solving for psi, Initial residual = 1.18617925016e-11, Final residual = 1.18617925016e-11, No Iterations 0
ExecutionTime = 23.61 s  ClockTime = 24 s

Courant Number mean: 0.0355999838665 max: 0.0499296452857
deltaT = 0.00818239137911
Time = 24.96727043

Inner iteration:  0

DICPCG:  Solving for Ux, Initial residual = 2.37106266789e-07, Final residual = 1.16627564596e-11, No Iterations 2
DICPCG:  Solving for Uy, Initial residual = 6.90925132973e-05, Final residual = 1.9674583065e-11, No Iterations 2
DICPCG:  Solving for p, Initial residual = 4.17930572415e-07, Final residual = 5.06893271743e-11, No Iterations 4
time step continuity errors : sum local = 2.22433445418e-11, global = 2.115218329e-12, cumulative = -2.100515213e-09
DILUPBiCG:  Solving for tauxx, Initial residual = 7.35686764284e-08, Final residual = 3.24501434633e-16, No Iterations 1
DILUPBiCG:  Solving for tauxy, Initial residual = 1.50079486926e-07, Final residual = 1.39529593871e-14, No Iterations 1
DILUPBiCG:  Solving for tauyy, Initial residual = 0.000202150352457, Final residual = 2.79449614593e-12, No Iterations 1
DILUPBiCG:  Solving for tauzz, Initial residual = 0, Final residual = 0, No Iterations 0
DICPCG:  Solving for psi, Initial residual = 1.18617925016e-11, Final residual = 1.18617925016e-11, No Iterations 0
ExecutionTime = 23.61 s  ClockTime = 24 s

Courant Number mean: 0.0356000042418 max: 0.0499296573371
deltaT = 0.00818239137911
Time = 24.97545283

Inner iteration:  0

DICPCG:  Solving for Ux, Initial residual = 2.3697172743e-07, Final residual = 1.16437670839e-11, No Iterations 2
DICPCG:  Solving for Uy, Initial residual = 6.90785865537e-05, Final residual = 1.96146164571e-11, No Iterations 2
DICPCG:  Solving for p, Initial residual = 4.17948069622e-07, Final residual = 4.51129791233e-11, No Iterations 4
time step continuity errors : sum local = 2.16481768879e-11, global = 2.12883946076e-12, cumulative = -2.09838637354e-09
DILUPBiCG:  Solving for tauxx, Initial residual = 7.33724701741e-08, Final residual = 2.98589670728e-16, No Iterations 1
DILUPBiCG:  Solving for tauxy, Initial residual = 1.49680580294e-07, Final residual = 1.39690627416e-14, No Iterations 1
DILUPBiCG:  Solving for tauyy, Initial residual = 0.00020207950421, Final residual = 2.79527021535e-12, No Iterations 1
DILUPBiCG:  Solving for tauzz, Initial residual = 0, Final residual = 0, No Iterations 0
DICPCG:  Solving for psi, Initial residual = 1.18617925016e-11, Final residual = 1.18617925016e-11, No Iterations 0
ExecutionTime = 23.62 s  ClockTime = 24 s

Courant Number mean: 0.0356000246021 max: 0.0499296683301
deltaT = 0.00818239137911
Time = 24.98363522

Inner iteration:  0

DICPCG:  Solving for Ux, Initial residual = 2.3683748596e-07, Final residual = 1.162479111e-11, No Iterations 2
DICPCG:  Solving for Uy, Initial residual = 6.90645944415e-05, Final residual = 1.96925314739e-11, No Iterations 2
DICPCG:  Solving for p, Initial residual = 4.17967502586e-07, Final residual = 4.11894728502e-11, No Iterations 4
time step continuity errors : sum local = 2.12041892079e-11, global = 2.20925090476e-12, cumulative = -2.09617712263e-09
DILUPBiCG:  Solving for tauxx, Initial residual = 7.31768001592e-08, Final residual = 2.84908160904e-16, No Iterations 1
DILUPBiCG:  Solving for tauxy, Initial residual = 1.4928389401e-07, Final residual = 1.38227526889e-14, No Iterations 1
DILUPBiCG:  Solving for tauyy, Initial residual = 0.000202020651151, Final residual = 2.79813283849e-12, No Iterations 1
DILUPBiCG:  Solving for tauzz, Initial residual = 0, Final residual = 0, No Iterations 0
DICPCG:  Solving for psi, Initial residual = 1.18617925016e-11, Final residual = 1.18617925016e-11, No Iterations 0
ExecutionTime = 23.62 s  ClockTime = 24 s

Courant Number mean: 0.0356000448741 max: 0.0499296805845
deltaT = 0.00818239137912
Time = 24.99181761

Inner iteration:  0

DICPCG:  Solving for Ux, Initial residual = 2.36703525737e-07, Final residual = 1.16058126908e-11, No Iterations 2
DICPCG:  Solving for Uy, Initial residual = 6.90502673916e-05, Final residual = 1.95779254157e-11, No Iterations 2
DICPCG:  Solving for p, Initial residual = 4.17981663009e-07, Final residual = 4.96319594602e-11, No Iterations 4
time step continuity errors : sum local = 2.21321553357e-11, global = 1.99761747482e-12, cumulative = -2.09417950516e-09
DILUPBiCG:  Solving for tauxx, Initial residual = 7.29825535709e-08, Final residual = 2.69805662411e-16, No Iterations 1
DILUPBiCG:  Solving for tauxy, Initial residual = 1.4888775998e-07, Final residual = 1.41699321979e-14, No Iterations 1
DILUPBiCG:  Solving for tauyy, Initial residual = 0.000201890211196, Final residual = 2.7928688873e-12, No Iterations 1
DILUPBiCG:  Solving for tauzz, Initial residual = 0, Final residual = 0, No Iterations 0
DICPCG:  Solving for psi, Initial residual = 1.18617925016e-11, Final residual = 1.18617925016e-11, No Iterations 0
ExecutionTime = 23.63 s  ClockTime = 24 s

Courant Number mean: 0.0356000650563 max: 0.0499296915859
deltaT = 0.00818330605565
Time = 25

Inner iteration:  0

DICPCG:  Solving for Ux, Initial residual = 2.36569545088e-07, Final residual = 1.15870249914e-11, No Iterations 2
DICPCG:  Solving for Uy, Initial residual = 6.90355874793e-05, Final residual = 1.95471634496e-11, No Iterations 2
DICPCG:  Solving for p, Initial residual = 4.17957441143e-07, Final residual = 3.33856341071e-11, No Iterations 4
time step continuity errors : sum local = 2.0732950479e-11, global = 2.32955978811e-12, cumulative = -2.09184994537e-09
DILUPBiCG:  Solving for tauxx, Initial residual = 7.2796359635e-08, Final residual = 2.53106527656e-16, No Iterations 1
DILUPBiCG:  Solving for tauxy, Initial residual = 1.48508422919e-07, Final residual = 1.3827994017e-14, No Iterations 1
DILUPBiCG:  Solving for tauyy, Initial residual = 0.000202813972006, Final residual = 2.81487276579e-12, No Iterations 1
DILUPBiCG:  Solving for tauzz, Initial residual = 0, Final residual = 0, No Iterations 0
DICPCG:  Solving for psi, Initial residual = 1.18617925016e-11, Final residual = 1.18617925016e-11, No Iterations 0
ExecutionTime = 23.68 s  ClockTime = 24 s

End

